
---------- Begin Simulation Statistics ----------
simSeconds                                   0.038484                       # Number of seconds simulated (Second)
simTicks                                  38484267876                       # Number of ticks simulated (Tick)
finalTick                                 38484267876                       # Number of ticks from beginning of simulation (restored from checkpoints and never reset) (Tick)
simFreq                                  1000000000000                       # The number of ticks per simulated second ((Tick/Second))
hostSeconds                                    354.05                       # Real time elapsed on the host (Second)
hostTickRate                                108698745                       # The number of ticks simulated per host second (ticks/s) ((Tick/Second))
hostMemory                                    2726900                       # Number of bytes of host memory used (Byte)
simInsts                                     61415705                       # Number of instructions simulated (Count)
simOps                                       61416079                       # Number of ops (including micro ops) simulated (Count)
hostInstRate                                   173468                       # Simulator instruction rate (inst/s) ((Count/Second))
hostOpRate                                     173470                       # Simulator op (including micro ops) rate (op/s) ((Count/Second))
board.cache_hierarchy.ruby_system.delayHistogram::bucket_size          512                       # delay histogram for all message (Unspecified)
board.cache_hierarchy.ruby_system.delayHistogram::max_bucket         5119                       # delay histogram for all message (Unspecified)
board.cache_hierarchy.ruby_system.delayHistogram::samples      5327945                       # delay histogram for all message (Unspecified)
board.cache_hierarchy.ruby_system.delayHistogram::mean     0.924918                       # delay histogram for all message (Unspecified)
board.cache_hierarchy.ruby_system.delayHistogram::stdev     3.950510                       # delay histogram for all message (Unspecified)
board.cache_hierarchy.ruby_system.delayHistogram |     5327934    100.00%    100.00% |           2      0.00%    100.00% |           2      0.00%    100.00% |           2      0.00%    100.00% |           2      0.00%    100.00% |           2      0.00%    100.00% |           1      0.00%    100.00% |           0      0.00%    100.00% |           0      0.00%    100.00% |           0      0.00%    100.00% # delay histogram for all message (Unspecified)
board.cache_hierarchy.ruby_system.delayHistogram::total      5327945                       # delay histogram for all message (Unspecified)
board.cache_hierarchy.ruby_system.m_outstandReqHistSeqr::bucket_size            1                       (Unspecified)
board.cache_hierarchy.ruby_system.m_outstandReqHistSeqr::max_bucket            9                       (Unspecified)
board.cache_hierarchy.ruby_system.m_outstandReqHistSeqr::samples     48847822                       (Unspecified)
board.cache_hierarchy.ruby_system.m_outstandReqHistSeqr::mean     1.379380                       (Unspecified)
board.cache_hierarchy.ruby_system.m_outstandReqHistSeqr::gmean     1.287085                       (Unspecified)
board.cache_hierarchy.ruby_system.m_outstandReqHistSeqr::stdev     0.555918                       (Unspecified)
board.cache_hierarchy.ruby_system.m_outstandReqHistSeqr |           0      0.00%      0.00% |    32113399     65.74%     65.74% |    14936958     30.58%     96.32% |     1797465      3.68%    100.00% |           0      0.00%    100.00% |           0      0.00%    100.00% |           0      0.00%    100.00% |           0      0.00%    100.00% |           0      0.00%    100.00% |           0      0.00%    100.00% (Unspecified)
board.cache_hierarchy.ruby_system.m_outstandReqHistSeqr::total     48847822                       (Unspecified)
board.cache_hierarchy.ruby_system.m_latencyHistSeqr::bucket_size          256                       (Unspecified)
board.cache_hierarchy.ruby_system.m_latencyHistSeqr::max_bucket         2559                       (Unspecified)
board.cache_hierarchy.ruby_system.m_latencyHistSeqr::samples     49222821                       (Unspecified)
board.cache_hierarchy.ruby_system.m_latencyHistSeqr::mean     5.366528                       (Unspecified)
board.cache_hierarchy.ruby_system.m_latencyHistSeqr::gmean     1.094767                       (Unspecified)
board.cache_hierarchy.ruby_system.m_latencyHistSeqr::stdev    41.485319                       (Unspecified)
board.cache_hierarchy.ruby_system.m_latencyHistSeqr |    48882749     99.31%     99.31% |      249748      0.51%     99.82% |       76633      0.16%     99.97% |        7136      0.01%     99.99% |        3923      0.01%     99.99% |        2305      0.00%    100.00% |         325      0.00%    100.00% |           1      0.00%    100.00% |           1      0.00%    100.00% |           0      0.00%    100.00% (Unspecified)
board.cache_hierarchy.ruby_system.m_latencyHistSeqr::total     49222821                       (Unspecified)
board.cache_hierarchy.ruby_system.m_hitLatencyHistSeqr::bucket_size            1                       (Unspecified)
board.cache_hierarchy.ruby_system.m_hitLatencyHistSeqr::max_bucket            9                       (Unspecified)
board.cache_hierarchy.ruby_system.m_hitLatencyHistSeqr::samples     48455738                       (Unspecified)
board.cache_hierarchy.ruby_system.m_hitLatencyHistSeqr::mean     1.007739                       (Unspecified)
board.cache_hierarchy.ruby_system.m_hitLatencyHistSeqr::gmean     1.005379                       (Unspecified)
board.cache_hierarchy.ruby_system.m_hitLatencyHistSeqr::stdev     0.087632                       (Unspecified)
board.cache_hierarchy.ruby_system.m_hitLatencyHistSeqr |           0      0.00%      0.00% |    48080728     99.23%     99.23% |      375010      0.77%    100.00% |           0      0.00%    100.00% |           0      0.00%    100.00% |           0      0.00%    100.00% |           0      0.00%    100.00% |           0      0.00%    100.00% |           0      0.00%    100.00% |           0      0.00%    100.00% (Unspecified)
board.cache_hierarchy.ruby_system.m_hitLatencyHistSeqr::total     48455738                       (Unspecified)
board.cache_hierarchy.ruby_system.m_missLatencyHistSeqr::bucket_size          256                       (Unspecified)
board.cache_hierarchy.ruby_system.m_missLatencyHistSeqr::max_bucket         2559                       (Unspecified)
board.cache_hierarchy.ruby_system.m_missLatencyHistSeqr::samples       767083                       (Unspecified)
board.cache_hierarchy.ruby_system.m_missLatencyHistSeqr::mean   280.706105                       (Unspecified)
board.cache_hierarchy.ruby_system.m_missLatencyHistSeqr::gmean   237.716986                       (Unspecified)
board.cache_hierarchy.ruby_system.m_missLatencyHistSeqr::stdev   182.822648                       (Unspecified)
board.cache_hierarchy.ruby_system.m_missLatencyHistSeqr |      427011     55.67%     55.67% |      249748     32.56%     88.23% |       76633      9.99%     98.22% |        7136      0.93%     99.15% |        3923      0.51%     99.66% |        2305      0.30%     99.96% |         325      0.04%    100.00% |           1      0.00%    100.00% |           1      0.00%    100.00% |           0      0.00%    100.00% (Unspecified)
board.cache_hierarchy.ruby_system.m_missLatencyHistSeqr::total       767083                       (Unspecified)
board.cache_hierarchy.ruby_system.delayVCHist.vnet_0::bucket_size          512                       # delay histogram for vnet_0 (Unspecified)
board.cache_hierarchy.ruby_system.delayVCHist.vnet_0::max_bucket         5119                       # delay histogram for vnet_0 (Unspecified)
board.cache_hierarchy.ruby_system.delayVCHist.vnet_0::samples      1904959                       # delay histogram for vnet_0 (Unspecified)
board.cache_hierarchy.ruby_system.delayVCHist.vnet_0::mean     2.070164                       # delay histogram for vnet_0 (Unspecified)
board.cache_hierarchy.ruby_system.delayVCHist.vnet_0::stdev     6.159588                       # delay histogram for vnet_0 (Unspecified)
board.cache_hierarchy.ruby_system.delayVCHist.vnet_0 |     1904948    100.00%    100.00% |           2      0.00%    100.00% |           2      0.00%    100.00% |           2      0.00%    100.00% |           2      0.00%    100.00% |           2      0.00%    100.00% |           1      0.00%    100.00% |           0      0.00%    100.00% |           0      0.00%    100.00% |           0      0.00%    100.00% # delay histogram for vnet_0 (Unspecified)
board.cache_hierarchy.ruby_system.delayVCHist.vnet_0::total      1904959                       # delay histogram for vnet_0 (Unspecified)
board.cache_hierarchy.ruby_system.delayVCHist.vnet_1::bucket_size            8                       # delay histogram for vnet_1 (Unspecified)
board.cache_hierarchy.ruby_system.delayVCHist.vnet_1::max_bucket           79                       # delay histogram for vnet_1 (Unspecified)
board.cache_hierarchy.ruby_system.delayVCHist.vnet_1::samples      3041953                       # delay histogram for vnet_1 (Unspecified)
board.cache_hierarchy.ruby_system.delayVCHist.vnet_1::mean     0.323586                       # delay histogram for vnet_1 (Unspecified)
board.cache_hierarchy.ruby_system.delayVCHist.vnet_1::stdev     1.511653                       # delay histogram for vnet_1 (Unspecified)
board.cache_hierarchy.ruby_system.delayVCHist.vnet_1 |     2993937     98.42%     98.42% |       44843      1.47%     99.90% |        2759      0.09%     99.99% |         294      0.01%    100.00% |          79      0.00%    100.00% |          30      0.00%    100.00% |           9      0.00%    100.00% |           2      0.00%    100.00% |           0      0.00%    100.00% |           0      0.00%    100.00% # delay histogram for vnet_1 (Unspecified)
board.cache_hierarchy.ruby_system.delayVCHist.vnet_1::total      3041953                       # delay histogram for vnet_1 (Unspecified)
board.cache_hierarchy.ruby_system.delayVCHist.vnet_2::bucket_size            1                       # delay histogram for vnet_2 (Unspecified)
board.cache_hierarchy.ruby_system.delayVCHist.vnet_2::max_bucket            9                       # delay histogram for vnet_2 (Unspecified)
board.cache_hierarchy.ruby_system.delayVCHist.vnet_2::samples       381033                       # delay histogram for vnet_2 (Unspecified)
board.cache_hierarchy.ruby_system.delayVCHist.vnet_2::mean     0.000005                       # delay histogram for vnet_2 (Unspecified)
board.cache_hierarchy.ruby_system.delayVCHist.vnet_2::stdev     0.003240                       # delay histogram for vnet_2 (Unspecified)
board.cache_hierarchy.ruby_system.delayVCHist.vnet_2 |      381032    100.00%    100.00% |           0      0.00%    100.00% |           1      0.00%    100.00% |           0      0.00%    100.00% |           0      0.00%    100.00% |           0      0.00%    100.00% |           0      0.00%    100.00% |           0      0.00%    100.00% |           0      0.00%    100.00% |           0      0.00%    100.00% # delay histogram for vnet_2 (Unspecified)
board.cache_hierarchy.ruby_system.delayVCHist.vnet_2::total       381033                       # delay histogram for vnet_2 (Unspecified)
board.cache_hierarchy.ruby_system.Directory_Controller.Fetch       758315      0.00%      0.00% (Unspecified)
board.cache_hierarchy.ruby_system.Directory_Controller.Data       501497      0.00%      0.00% (Unspecified)
board.cache_hierarchy.ruby_system.Directory_Controller.Memory_Data       758315      0.00%      0.00% (Unspecified)
board.cache_hierarchy.ruby_system.Directory_Controller.Memory_Ack       501497      0.00%      0.00% (Unspecified)
board.cache_hierarchy.ruby_system.Directory_Controller.CleanReplacement       252722      0.00%      0.00% (Unspecified)
board.cache_hierarchy.ruby_system.Directory_Controller.I.Fetch       758315      0.00%      0.00% (Unspecified)
board.cache_hierarchy.ruby_system.Directory_Controller.M.Data       501497      0.00%      0.00% (Unspecified)
board.cache_hierarchy.ruby_system.Directory_Controller.M.CleanReplacement       252722      0.00%      0.00% (Unspecified)
board.cache_hierarchy.ruby_system.Directory_Controller.IM.Memory_Data       758315      0.00%      0.00% (Unspecified)
board.cache_hierarchy.ruby_system.Directory_Controller.MI.Memory_Ack       501497      0.00%      0.00% (Unspecified)
board.cache_hierarchy.ruby_system.L1Cache_Controller.Load |    15618772     63.76%     63.76% |      603016      2.46%     66.22% |      609920      2.49%     68.71% |      602948      2.46%     71.18% |      595513      2.43%     73.61% |      590668      2.41%     76.02% |      590808      2.41%     78.43% |      598839      2.44%     80.87% |      592488      2.42%     83.29% |      586846      2.40%     85.69% |      587586      2.40%     88.09% |      583493      2.38%     90.47% |      588123      2.40%     92.87% |      584939      2.39%     95.26% |      580422      2.37%     97.63% |      580839      2.37%    100.00% (Unspecified)
board.cache_hierarchy.ruby_system.L1Cache_Controller.Load::total     24495220                       (Unspecified)
board.cache_hierarchy.ruby_system.L1Cache_Controller.Ifetch |    12409558     72.87%     72.87% |      330493      1.94%     74.81% |      344300      2.02%     76.83% |      330334      1.94%     78.77% |      315482      1.85%     80.63% |      305769      1.80%     82.42% |      306057      1.80%     84.22% |      322171      1.89%     86.11% |      309418      1.82%     87.93% |      298152      1.75%     89.68% |      299668      1.76%     91.44% |      291438      1.71%     93.15% |      300731      1.77%     94.92% |      294347      1.73%     96.64% |      285307      1.68%     98.32% |      286144      1.68%    100.00% (Unspecified)
board.cache_hierarchy.ruby_system.L1Cache_Controller.Ifetch::total     17029369                       (Unspecified)
board.cache_hierarchy.ruby_system.L1Cache_Controller.Store |     5763976     74.88%     74.88% |      133450      1.73%     76.61% |      136213      1.77%     78.38% |      133412      1.73%     80.11% |      130438      1.69%     81.81% |      128498      1.67%     83.47% |      128554      1.67%     85.14% |      131777      1.71%     86.86% |      129227      1.68%     88.54% |      126976      1.65%     90.18% |      127275      1.65%     91.84% |      125626      1.63%     93.47% |      127490      1.66%     95.13% |      126213      1.64%     96.77% |      124415      1.62%     98.38% |      124566      1.62%    100.00% (Unspecified)
board.cache_hierarchy.ruby_system.L1Cache_Controller.Store::total      7698106                       (Unspecified)
board.cache_hierarchy.ruby_system.L1Cache_Controller.Inv |       25426      6.68%      6.68% |       23843      6.26%     12.94% |       23861      6.27%     19.21% |       23733      6.23%     25.44% |       23702      6.23%     31.67% |       23632      6.21%     37.87% |       23601      6.20%     44.07% |       23873      6.27%     50.34% |       23739      6.23%     56.58% |       23643      6.21%     62.78% |       23628      6.21%     68.99% |       23588      6.20%     75.19% |       23719      6.23%     81.41% |       23643      6.21%     87.62% |       23486      6.17%     93.79% |       23634      6.21%    100.00% (Unspecified)
board.cache_hierarchy.ruby_system.L1Cache_Controller.Inv::total       380751                       (Unspecified)
board.cache_hierarchy.ruby_system.L1Cache_Controller.L1_Replacement |      400902     53.74%     53.74% |       23004      3.08%     56.83% |       23001      3.08%     59.91% |       23004      3.08%     63.00% |       23001      3.08%     66.08% |       23004      3.08%     69.16% |       23001      3.08%     72.25% |       23004      3.08%     75.33% |       23001      3.08%     78.41% |       23004      3.08%     81.50% |       23001      3.08%     84.58% |       23004      3.08%     87.67% |       23001      3.08%     90.75% |       23004      3.08%     93.83% |       23003      3.08%     96.92% |       23002      3.08%    100.00% (Unspecified)
board.cache_hierarchy.ruby_system.L1Cache_Controller.L1_Replacement::total       745941                       (Unspecified)
board.cache_hierarchy.ruby_system.L1Cache_Controller.Fwd_GETX |          77     53.47%     53.47% |           5      3.47%     56.94% |           5      3.47%     60.42% |           5      3.47%     63.89% |           5      3.47%     67.36% |           4      2.78%     70.14% |           5      3.47%     73.61% |           4      2.78%     76.39% |           5      3.47%     79.86% |           5      3.47%     83.33% |           5      3.47%     86.81% |           5      3.47%     90.28% |           5      3.47%     93.75% |           4      2.78%     96.53% |           4      2.78%     99.31% |           1      0.69%    100.00% (Unspecified)
board.cache_hierarchy.ruby_system.L1Cache_Controller.Fwd_GETX::total          144                       (Unspecified)
board.cache_hierarchy.ruby_system.L1Cache_Controller.Fwd_GETS |         121     87.68%     87.68% |          10      7.25%     94.93% |           4      2.90%     97.83% |           0      0.00%     97.83% |           0      0.00%     97.83% |           0      0.00%     97.83% |           0      0.00%     97.83% |           0      0.00%     97.83% |           0      0.00%     97.83% |           0      0.00%     97.83% |           0      0.00%     97.83% |           0      0.00%     97.83% |           0      0.00%     97.83% |           0      0.00%     97.83% |           2      1.45%     99.28% |           1      0.72%    100.00% (Unspecified)
board.cache_hierarchy.ruby_system.L1Cache_Controller.Fwd_GETS::total          138                       (Unspecified)
board.cache_hierarchy.ruby_system.L1Cache_Controller.Data_Exclusive |       17522      6.87%      6.87% |       15843      6.21%     13.08% |       15841      6.21%     19.29% |       15810      6.20%     25.48% |       15804      6.19%     31.68% |       15837      6.21%     37.89% |       15836      6.21%     44.09% |       15867      6.22%     50.31% |       15832      6.21%     56.52% |       15839      6.21%     62.73% |       15836      6.21%     68.94% |       15872      6.22%     75.16% |       15834      6.21%     81.36% |       15837      6.21%     87.57% |       15835      6.21%     93.78% |       15871      6.22%    100.00% (Unspecified)
board.cache_hierarchy.ruby_system.L1Cache_Controller.Data_Exclusive::total       255116                       (Unspecified)
board.cache_hierarchy.ruby_system.L1Cache_Controller.DataS_fromL1 |           1      0.72%      0.72% |          25     18.12%     18.84% |          17     12.32%     31.16% |           8      5.80%     36.96% |           7      5.07%     42.03% |           8      5.80%     47.83% |           7      5.07%     52.90% |           7      5.07%     57.97% |           7      5.07%     63.04% |           8      5.80%     68.84% |           7      5.07%     73.91% |           7      5.07%     78.99% |           7      5.07%     84.06% |           7      5.07%     89.13% |           8      5.80%     94.93% |           7      5.07%    100.00% (Unspecified)
board.cache_hierarchy.ruby_system.L1Cache_Controller.DataS_fromL1::total          138                       (Unspecified)
board.cache_hierarchy.ruby_system.L1Cache_Controller.Data_all_Acks |      385585     75.34%     75.34% |        8385      1.64%     76.98% |        8396      1.64%     78.62% |        8410      1.64%     80.26% |        8420      1.65%     81.91% |        8415      1.64%     83.55% |        8414      1.64%     85.20% |        8417      1.64%     86.84% |        8418      1.64%     88.49% |        8414      1.64%     90.13% |        8414      1.64%     91.78% |        8416      1.64%     93.42% |        8416      1.64%     95.07% |        8417      1.64%     96.71% |        8421      1.65%     98.36% |        8417      1.64%    100.00% (Unspecified)
board.cache_hierarchy.ruby_system.L1Cache_Controller.Data_all_Acks::total       511775                       (Unspecified)
board.cache_hierarchy.ruby_system.L1Cache_Controller.Ack |          30     33.33%     33.33% |           2      2.22%     35.56% |           2      2.22%     37.78% |           2      2.22%     40.00% |           2      2.22%     42.22% |           2      2.22%     44.44% |           2      2.22%     46.67% |           2      2.22%     48.89% |           2      2.22%     51.11% |           2      2.22%     53.33% |           2      2.22%     55.56% |           2      2.22%     57.78% |           2      2.22%     60.00% |           2      2.22%     62.22% |          17     18.89%     81.11% |          17     18.89%    100.00% (Unspecified)
board.cache_hierarchy.ruby_system.L1Cache_Controller.Ack::total           90                       (Unspecified)
board.cache_hierarchy.ruby_system.L1Cache_Controller.Ack_all |          16     33.33%     33.33% |           2      4.17%     37.50% |           2      4.17%     41.67% |           2      4.17%     45.83% |           2      4.17%     50.00% |           2      4.17%     54.17% |           2      4.17%     58.33% |           2      4.17%     62.50% |           2      4.17%     66.67% |           2      4.17%     70.83% |           2      4.17%     75.00% |           2      4.17%     79.17% |           2      4.17%     83.33% |           2      4.17%     87.50% |           3      6.25%     93.75% |           3      6.25%    100.00% (Unspecified)
board.cache_hierarchy.ruby_system.L1Cache_Controller.Ack_all::total           48                       (Unspecified)
board.cache_hierarchy.ruby_system.L1Cache_Controller.WB_Ack |      376877     98.80%     98.80% |         309      0.08%     98.88% |         336      0.09%     98.97% |         354      0.09%     99.06% |         247      0.06%     99.13% |         289      0.08%     99.20% |         312      0.08%     99.29% |         271      0.07%     99.36% |         252      0.07%     99.42% |         261      0.07%     99.49% |         340      0.09%     99.58% |         302      0.08%     99.66% |         298      0.08%     99.74% |         318      0.08%     99.82% |         376      0.10%     99.92% |         305      0.08%    100.00% (Unspecified)
board.cache_hierarchy.ruby_system.L1Cache_Controller.WB_Ack::total       381447                       (Unspecified)
board.cache_hierarchy.ruby_system.L1Cache_Controller.Load_Linked |         128    100.00%    100.00% |           0      0.00%    100.00% |           0      0.00%    100.00% |           0      0.00%    100.00% |           0      0.00%    100.00% |           0      0.00%    100.00% |           0      0.00%    100.00% |           0      0.00%    100.00% |           0      0.00%    100.00% |           0      0.00%    100.00% |           0      0.00%    100.00% |           0      0.00%    100.00% |           0      0.00%    100.00% |           0      0.00%    100.00% |           0      0.00%    100.00% |           0      0.00%    100.00% (Unspecified)
board.cache_hierarchy.ruby_system.L1Cache_Controller.Load_Linked::total          128                       (Unspecified)
board.cache_hierarchy.ruby_system.L1Cache_Controller.LLSC_Data_all_Acks |           6    100.00%    100.00% |           0      0.00%    100.00% |           0      0.00%    100.00% |           0      0.00%    100.00% |           0      0.00%    100.00% |           0      0.00%    100.00% |           0      0.00%    100.00% |           0      0.00%    100.00% |           0      0.00%    100.00% |           0      0.00%    100.00% |           0      0.00%    100.00% |           0      0.00%    100.00% |           0      0.00%    100.00% |           0      0.00%    100.00% |           0      0.00%    100.00% |           0      0.00%    100.00% (Unspecified)
board.cache_hierarchy.ruby_system.L1Cache_Controller.LLSC_Data_all_Acks::total            6                       (Unspecified)
board.cache_hierarchy.ruby_system.L1Cache_Controller.LLSC_Timeout |         128    100.00%    100.00% |           0      0.00%    100.00% |           0      0.00%    100.00% |           0      0.00%    100.00% |           0      0.00%    100.00% |           0      0.00%    100.00% |           0      0.00%    100.00% |           0      0.00%    100.00% |           0      0.00%    100.00% |           0      0.00%    100.00% |           0      0.00%    100.00% |           0      0.00%    100.00% |           0      0.00%    100.00% |           0      0.00%    100.00% |           0      0.00%    100.00% |           0      0.00%    100.00% (Unspecified)
board.cache_hierarchy.ruby_system.L1Cache_Controller.LLSC_Timeout::total          128                       (Unspecified)
board.cache_hierarchy.ruby_system.L1Cache_Controller.NP.Load |       17260      6.84%      6.84% |       15671      6.21%     13.05% |       15669      6.21%     19.26% |       15671      6.21%     25.47% |       15669      6.21%     31.68% |       15671      6.21%     37.89% |       15669      6.21%     44.10% |       15671      6.21%     50.32% |       15669      6.21%     56.53% |       15671      6.21%     62.74% |       15669      6.21%     68.95% |       15671      6.21%     75.16% |       15669      6.21%     81.37% |       15671      6.21%     87.58% |       15671      6.21%     93.79% |       15669      6.21%    100.00% (Unspecified)
board.cache_hierarchy.ruby_system.L1Cache_Controller.NP.Load::total       252311                       (Unspecified)
board.cache_hierarchy.ruby_system.L1Cache_Controller.NP.Ifetch |        1262     36.14%     36.14% |         147      4.21%     40.35% |         148      4.24%     44.59% |         148      4.24%     48.83% |         148      4.24%     53.06% |         148      4.24%     57.30% |         148      4.24%     61.54% |         148      4.24%     65.78% |         148      4.24%     70.02% |         148      4.24%     74.26% |         148      4.24%     78.49% |         148      4.24%     82.73% |         148      4.24%     86.97% |         148      4.24%     91.21% |         154      4.41%     95.62% |         153      4.38%    100.00% (Unspecified)
board.cache_hierarchy.ruby_system.L1Cache_Controller.NP.Ifetch::total         3492                       (Unspecified)
board.cache_hierarchy.ruby_system.L1Cache_Controller.NP.Store |      383397     76.52%     76.52% |        7845      1.57%     78.08% |        7844      1.57%     79.65% |        7845      1.57%     81.21% |        7844      1.57%     82.78% |        7845      1.57%     84.34% |        7844      1.57%     85.91% |        7845      1.57%     87.48% |        7844      1.57%     89.04% |        7845      1.57%     90.61% |        7844      1.57%     92.17% |        7845      1.57%     93.74% |        7844      1.57%     95.30% |        7845      1.57%     96.87% |        7844      1.57%     98.43% |        7845      1.57%    100.00% (Unspecified)
board.cache_hierarchy.ruby_system.L1Cache_Controller.NP.Store::total       501065                       (Unspecified)
board.cache_hierarchy.ruby_system.L1Cache_Controller.NP.Inv |         185     97.37%     97.37% |           0      0.00%     97.37% |           1      0.53%     97.89% |           1      0.53%     98.42% |           1      0.53%     98.95% |           1      0.53%     99.47% |           0      0.00%     99.47% |           0      0.00%     99.47% |           0      0.00%     99.47% |           0      0.00%     99.47% |           0      0.00%     99.47% |           0      0.00%     99.47% |           0      0.00%     99.47% |           0      0.00%     99.47% |           0      0.00%     99.47% |           1      0.53%    100.00% (Unspecified)
board.cache_hierarchy.ruby_system.L1Cache_Controller.NP.Inv::total          190                       (Unspecified)
board.cache_hierarchy.ruby_system.L1Cache_Controller.NP.Load_Linked |           6    100.00%    100.00% |           0      0.00%    100.00% |           0      0.00%    100.00% |           0      0.00%    100.00% |           0      0.00%    100.00% |           0      0.00%    100.00% |           0      0.00%    100.00% |           0      0.00%    100.00% |           0      0.00%    100.00% |           0      0.00%    100.00% |           0      0.00%    100.00% |           0      0.00%    100.00% |           0      0.00%    100.00% |           0      0.00%    100.00% |           0      0.00%    100.00% |           0      0.00%    100.00% (Unspecified)
board.cache_hierarchy.ruby_system.L1Cache_Controller.NP.Load_Linked::total            6                       (Unspecified)
board.cache_hierarchy.ruby_system.L1Cache_Controller.I.Load |         272      7.90%      7.90% |         205      5.96%     13.86% |         211      6.13%     19.99% |         182      5.29%     25.28% |         178      5.17%     30.46% |         209      6.07%     36.53% |         210      6.10%     42.63% |         239      6.95%     49.58% |         206      5.99%     55.57% |         211      6.13%     61.70% |         210      6.10%     67.80% |         244      7.09%     74.89% |         208      6.04%     80.94% |         209      6.07%     87.01% |         206      5.99%     93.00% |         241      7.00%    100.00% (Unspecified)
board.cache_hierarchy.ruby_system.L1Cache_Controller.I.Load::total         3441                       (Unspecified)
board.cache_hierarchy.ruby_system.L1Cache_Controller.I.Ifetch |         913     13.70%     13.70% |         379      5.69%     19.38% |         379      5.69%     25.07% |         379      5.69%     30.76% |         385      5.78%     36.53% |         385      5.78%     42.31% |         385      5.78%     48.09% |         381      5.72%     53.80% |         385      5.78%     59.58% |         385      5.78%     65.36% |         385      5.78%     71.13% |         385      5.78%     76.91% |         385      5.78%     82.69% |         385      5.78%     88.46% |         385      5.78%     94.24% |         384      5.76%    100.00% (Unspecified)
board.cache_hierarchy.ruby_system.L1Cache_Controller.I.Ifetch::total         6665                       (Unspecified)
board.cache_hierarchy.ruby_system.L1Cache_Controller.I.Store |           5      8.93%      8.93% |           6     10.71%     19.64% |           3      5.36%     25.00% |           3      5.36%     30.36% |           7     12.50%     42.86% |           2      3.57%     46.43% |           1      1.79%     48.21% |           7     12.50%     60.71% |           5      8.93%     69.64% |           1      1.79%     71.43% |           1      1.79%     73.21% |           2      3.57%     76.79% |           3      5.36%     82.14% |           3      5.36%     87.50% |           4      7.14%     94.64% |           3      5.36%    100.00% (Unspecified)
board.cache_hierarchy.ruby_system.L1Cache_Controller.I.Store::total           56                       (Unspecified)
board.cache_hierarchy.ruby_system.L1Cache_Controller.I.L1_Replacement |       23752      6.52%      6.52% |       22695      6.23%     12.75% |       22664      6.22%     18.98% |       22649      6.22%     25.19% |       22753      6.25%     31.44% |       22714      6.24%     37.68% |       22689      6.23%     43.91% |       22733      6.24%     50.15% |       22749      6.25%     56.39% |       22743      6.24%     62.64% |       22661      6.22%     68.86% |       22702      6.23%     75.09% |       22703      6.23%     81.33% |       22686      6.23%     87.56% |       22627      6.21%     93.77% |       22696      6.23%    100.00% (Unspecified)
board.cache_hierarchy.ruby_system.L1Cache_Controller.I.L1_Replacement::total       364216                       (Unspecified)
board.cache_hierarchy.ruby_system.L1Cache_Controller.S.Load |        2591      2.93%      2.93% |        8048      9.10%     12.03% |        8100      9.16%     21.19% |        8049      9.10%     30.29% |        6563      7.42%     37.72% |        5592      6.32%     44.04% |        5620      6.36%     50.39% |        7231      8.18%     58.57% |        5956      6.74%     65.31% |        4830      5.46%     70.77% |        4980      5.63%     76.40% |        4158      4.70%     81.10% |        5087      5.75%     86.86% |        4449      5.03%     91.89% |        3546      4.01%     95.90% |        3628      4.10%    100.00% (Unspecified)
board.cache_hierarchy.ruby_system.L1Cache_Controller.S.Load::total        88428                       (Unspecified)
board.cache_hierarchy.ruby_system.L1Cache_Controller.S.Ifetch |    12407382     72.90%     72.90% |      329967      1.94%     74.84% |      343773      2.02%     76.86% |      329807      1.94%     78.80% |      314949      1.85%     80.65% |      305236      1.79%     82.44% |      305524      1.80%     84.24% |      321642      1.89%     86.13% |      308885      1.81%     87.94% |      297619      1.75%     89.69% |      299135      1.76%     91.45% |      290905      1.71%     93.16% |      300198      1.76%     94.92% |      293814      1.73%     96.65% |      284768      1.67%     98.32% |      285607      1.68%    100.00% (Unspecified)
board.cache_hierarchy.ruby_system.L1Cache_Controller.S.Ifetch::total     17019211                       (Unspecified)
board.cache_hierarchy.ruby_system.L1Cache_Controller.S.Store |          16     33.33%     33.33% |           2      4.17%     37.50% |           2      4.17%     41.67% |           2      4.17%     45.83% |           2      4.17%     50.00% |           2      4.17%     54.17% |           2      4.17%     58.33% |           2      4.17%     62.50% |           2      4.17%     66.67% |           2      4.17%     70.83% |           2      4.17%     75.00% |           2      4.17%     79.17% |           2      4.17%     83.33% |           2      4.17%     87.50% |           3      6.25%     93.75% |           3      6.25%    100.00% (Unspecified)
board.cache_hierarchy.ruby_system.L1Cache_Controller.S.Store::total           48                       (Unspecified)
board.cache_hierarchy.ruby_system.L1Cache_Controller.S.Inv |        1638     17.06%     17.06% |         529      5.51%     22.56% |         529      5.51%     28.07% |         529      5.51%     33.58% |         531      5.53%     39.11% |         531      5.53%     44.64% |         532      5.54%     50.18% |         532      5.54%     55.72% |         532      5.54%     61.26% |         532      5.54%     66.80% |         532      5.54%     72.33% |         532      5.54%     77.87% |         532      5.54%     83.41% |         532      5.54%     88.95% |         531      5.53%     94.48% |         530      5.52%    100.00% (Unspecified)
board.cache_hierarchy.ruby_system.L1Cache_Controller.S.Inv::total         9604                       (Unspecified)
board.cache_hierarchy.ruby_system.L1Cache_Controller.S.L1_Replacement |         273     98.20%     98.20% |           0      0.00%     98.20% |           1      0.36%     98.56% |           1      0.36%     98.92% |           1      0.36%     99.28% |           1      0.36%     99.64% |           0      0.00%     99.64% |           0      0.00%     99.64% |           0      0.00%     99.64% |           0      0.00%     99.64% |           0      0.00%     99.64% |           0      0.00%     99.64% |           0      0.00%     99.64% |           0      0.00%     99.64% |           0      0.00%     99.64% |           1      0.36%    100.00% (Unspecified)
board.cache_hierarchy.ruby_system.L1Cache_Controller.S.L1_Replacement::total          278                       (Unspecified)
board.cache_hierarchy.ruby_system.L1Cache_Controller.E.Load |     3073898     40.95%     40.95% |      295561      3.94%     44.89% |      296889      3.96%     48.84% |      295635      3.94%     52.78% |      295707      3.94%     56.72% |      295417      3.94%     60.66% |      295559      3.94%     64.59% |      295323      3.93%     68.53% |      294979      3.93%     72.46% |      295812      3.94%     76.40% |      295122      3.93%     80.33% |      295381      3.94%     84.26% |      295097      3.93%     88.20% |      295557      3.94%     92.13% |      295159      3.93%     96.07% |      295375      3.93%    100.00% (Unspecified)
board.cache_hierarchy.ruby_system.L1Cache_Controller.E.Load::total      7506471                       (Unspecified)
board.cache_hierarchy.ruby_system.L1Cache_Controller.E.Store |         240     13.38%     13.38% |         100      5.57%     18.95% |         104      5.80%     24.75% |          89      4.96%     29.71% |          85      4.74%     34.45% |         103      5.74%     40.19% |         104      5.80%     45.99% |         116      6.47%     52.45% |         100      5.57%     58.03% |         104      5.80%     63.82% |         104      5.80%     69.62% |         121      6.74%     76.37% |         102      5.69%     82.05% |         102      5.69%     87.74% |         101      5.63%     93.37% |         119      6.63%    100.00% (Unspecified)
board.cache_hierarchy.ruby_system.L1Cache_Controller.E.Store::total         1794                       (Unspecified)
board.cache_hierarchy.ruby_system.L1Cache_Controller.E.Inv |       15447      6.31%      6.31% |       15384      6.29%     12.60% |       15388      6.29%     18.89% |       15305      6.25%     25.14% |       15323      6.26%     31.40% |       15256      6.23%     37.63% |       15233      6.22%     43.86% |       15409      6.30%     50.16% |       15341      6.27%     56.42% |       15279      6.24%     62.67% |       15233      6.22%     68.89% |       15221      6.22%     75.11% |       15312      6.26%     81.37% |       15246      6.23%     87.60% |       15123      6.18%     93.78% |       15229      6.22%    100.00% (Unspecified)
board.cache_hierarchy.ruby_system.L1Cache_Controller.E.Inv::total       244729                       (Unspecified)
board.cache_hierarchy.ruby_system.L1Cache_Controller.E.L1_Replacement |        1673     26.87%     26.87% |         307      4.93%     31.80% |         334      5.36%     37.17% |         350      5.62%     42.79% |         245      3.94%     46.72% |         288      4.63%     51.35% |         310      4.98%     56.33% |         269      4.32%     60.65% |         252      4.05%     64.70% |         261      4.19%     68.89% |         339      5.44%     74.33% |         301      4.83%     79.17% |         298      4.79%     83.95% |         318      5.11%     89.06% |         376      6.04%     95.10% |         305      4.90%    100.00% (Unspecified)
board.cache_hierarchy.ruby_system.L1Cache_Controller.E.L1_Replacement::total         6226                       (Unspecified)
board.cache_hierarchy.ruby_system.L1Cache_Controller.E.Fwd_GETS |           7     33.33%     33.33% |          10     47.62%     80.95% |           4     19.05%    100.00% |           0      0.00%    100.00% |           0      0.00%    100.00% |           0      0.00%    100.00% |           0      0.00%    100.00% |           0      0.00%    100.00% |           0      0.00%    100.00% |           0      0.00%    100.00% |           0      0.00%    100.00% |           0      0.00%    100.00% |           0      0.00%    100.00% |           0      0.00%    100.00% |           0      0.00%    100.00% |           0      0.00%    100.00% (Unspecified)
board.cache_hierarchy.ruby_system.L1Cache_Controller.E.Fwd_GETS::total           21                       (Unspecified)
board.cache_hierarchy.ruby_system.L1Cache_Controller.E.Load_Linked |           9    100.00%    100.00% |           0      0.00%    100.00% |           0      0.00%    100.00% |           0      0.00%    100.00% |           0      0.00%    100.00% |           0      0.00%    100.00% |           0      0.00%    100.00% |           0      0.00%    100.00% |           0      0.00%    100.00% |           0      0.00%    100.00% |           0      0.00%    100.00% |           0      0.00%    100.00% |           0      0.00%    100.00% |           0      0.00%    100.00% |           0      0.00%    100.00% |           0      0.00%    100.00% (Unspecified)
board.cache_hierarchy.ruby_system.L1Cache_Controller.E.Load_Linked::total            9                       (Unspecified)
board.cache_hierarchy.ruby_system.L1Cache_Controller.M.Load |    12524729     75.25%     75.25% |      283531      1.70%     76.95% |      289051      1.74%     78.69% |      283411      1.70%     80.39% |      277396      1.67%     82.06% |      273779      1.64%     83.70% |      273750      1.64%     85.35% |      280375      1.68%     87.03% |      275678      1.66%     88.69% |      270322      1.62%     90.31% |      271605      1.63%     91.94% |      268039      1.61%     93.55% |      272062      1.63%     95.19% |      269053      1.62%     96.81% |      265840      1.60%     98.40% |      265926      1.60%    100.00% (Unspecified)
board.cache_hierarchy.ruby_system.L1Cache_Controller.M.Load::total     16644547                       (Unspecified)
board.cache_hierarchy.ruby_system.L1Cache_Controller.M.Store |     5380180     74.78%     74.78% |      125497      1.74%     76.52% |      128260      1.78%     78.30% |      125473      1.74%     80.05% |      122500      1.70%     81.75% |      120546      1.68%     83.43% |      120603      1.68%     85.10% |      123807      1.72%     86.82% |      121276      1.69%     88.51% |      119024      1.65%     90.16% |      119324      1.66%     91.82% |      117656      1.64%     93.46% |      119539      1.66%     95.12% |      118261      1.64%     96.76% |      116463      1.62%     98.38% |      116596      1.62%    100.00% (Unspecified)
board.cache_hierarchy.ruby_system.L1Cache_Controller.M.Store::total      7195005                       (Unspecified)
board.cache_hierarchy.ruby_system.L1Cache_Controller.M.Inv |        8156      6.46%      6.46% |        7930      6.28%     12.74% |        7943      6.29%     19.04% |        7898      6.26%     25.29% |        7847      6.22%     31.51% |        7844      6.21%     37.72% |        7836      6.21%     43.93% |        7932      6.28%     50.22% |        7866      6.23%     56.45% |        7832      6.20%     62.65% |        7863      6.23%     68.88% |        7835      6.21%     75.09% |        7874      6.24%     81.33% |        7865      6.23%     87.56% |        7832      6.20%     93.76% |        7874      6.24%    100.00% (Unspecified)
board.cache_hierarchy.ruby_system.L1Cache_Controller.M.Inv::total       126227                       (Unspecified)
board.cache_hierarchy.ruby_system.L1Cache_Controller.M.L1_Replacement |      375204    100.00%    100.00% |           2      0.00%    100.00% |           2      0.00%    100.00% |           4      0.00%    100.00% |           2      0.00%    100.00% |           1      0.00%    100.00% |           2      0.00%    100.00% |           2      0.00%    100.00% |           0      0.00%    100.00% |           0      0.00%    100.00% |           1      0.00%    100.00% |           1      0.00%    100.00% |           0      0.00%    100.00% |           0      0.00%    100.00% |           0      0.00%    100.00% |           0      0.00%    100.00% (Unspecified)
board.cache_hierarchy.ruby_system.L1Cache_Controller.M.L1_Replacement::total       375221                       (Unspecified)
board.cache_hierarchy.ruby_system.L1Cache_Controller.M.Fwd_GETX |          77     53.47%     53.47% |           5      3.47%     56.94% |           5      3.47%     60.42% |           5      3.47%     63.89% |           5      3.47%     67.36% |           4      2.78%     70.14% |           5      3.47%     73.61% |           4      2.78%     76.39% |           5      3.47%     79.86% |           5      3.47%     83.33% |           5      3.47%     86.81% |           5      3.47%     90.28% |           5      3.47%     93.75% |           4      2.78%     96.53% |           4      2.78%     99.31% |           1      0.69%    100.00% (Unspecified)
board.cache_hierarchy.ruby_system.L1Cache_Controller.M.Fwd_GETX::total          144                       (Unspecified)
board.cache_hierarchy.ruby_system.L1Cache_Controller.M.Fwd_GETS |         114     97.44%     97.44% |           0      0.00%     97.44% |           0      0.00%     97.44% |           0      0.00%     97.44% |           0      0.00%     97.44% |           0      0.00%     97.44% |           0      0.00%     97.44% |           0      0.00%     97.44% |           0      0.00%     97.44% |           0      0.00%     97.44% |           0      0.00%     97.44% |           0      0.00%     97.44% |           0      0.00%     97.44% |           0      0.00%     97.44% |           2      1.71%     99.15% |           1      0.85%    100.00% (Unspecified)
board.cache_hierarchy.ruby_system.L1Cache_Controller.M.Fwd_GETS::total          117                       (Unspecified)
board.cache_hierarchy.ruby_system.L1Cache_Controller.M.Load_Linked |         113    100.00%    100.00% |           0      0.00%    100.00% |           0      0.00%    100.00% |           0      0.00%    100.00% |           0      0.00%    100.00% |           0      0.00%    100.00% |           0      0.00%    100.00% |           0      0.00%    100.00% |           0      0.00%    100.00% |           0      0.00%    100.00% |           0      0.00%    100.00% |           0      0.00%    100.00% |           0      0.00%    100.00% |           0      0.00%    100.00% |           0      0.00%    100.00% |           0      0.00%    100.00% (Unspecified)
board.cache_hierarchy.ruby_system.L1Cache_Controller.M.Load_Linked::total          113                       (Unspecified)
board.cache_hierarchy.ruby_system.L1Cache_Controller.IS.Data_Exclusive |       17522      6.87%      6.87% |       15843      6.21%     13.08% |       15841      6.21%     19.29% |       15810      6.20%     25.48% |       15804      6.19%     31.68% |       15837      6.21%     37.89% |       15836      6.21%     44.09% |       15867      6.22%     50.31% |       15832      6.21%     56.52% |       15839      6.21%     62.73% |       15836      6.21%     68.94% |       15872      6.22%     75.16% |       15834      6.21%     81.36% |       15837      6.21%     87.57% |       15835      6.21%     93.78% |       15871      6.22%    100.00% (Unspecified)
board.cache_hierarchy.ruby_system.L1Cache_Controller.IS.Data_Exclusive::total       255116                       (Unspecified)
board.cache_hierarchy.ruby_system.L1Cache_Controller.IS.DataS_fromL1 |           1      0.72%      0.72% |          25     18.12%     18.84% |          17     12.32%     31.16% |           8      5.80%     36.96% |           7      5.07%     42.03% |           8      5.80%     47.83% |           7      5.07%     52.90% |           7      5.07%     57.97% |           7      5.07%     63.04% |           8      5.80%     68.84% |           7      5.07%     73.91% |           7      5.07%     78.99% |           7      5.07%     84.06% |           7      5.07%     89.13% |           8      5.80%     94.93% |           7      5.07%    100.00% (Unspecified)
board.cache_hierarchy.ruby_system.L1Cache_Controller.IS.DataS_fromL1::total          138                       (Unspecified)
board.cache_hierarchy.ruby_system.L1Cache_Controller.IS.Data_all_Acks |        2183     20.49%     20.49% |         534      5.01%     25.50% |         549      5.15%     30.66% |         562      5.28%     35.93% |         569      5.34%     41.27% |         568      5.33%     46.60% |         569      5.34%     51.94% |         565      5.30%     57.25% |         569      5.34%     62.59% |         568      5.33%     67.92% |         569      5.34%     73.26% |         569      5.34%     78.60% |         569      5.34%     83.94% |         569      5.34%     89.28% |         573      5.38%     94.66% |         569      5.34%    100.00% (Unspecified)
board.cache_hierarchy.ruby_system.L1Cache_Controller.IS.Data_all_Acks::total        10654                       (Unspecified)
board.cache_hierarchy.ruby_system.L1Cache_Controller.IM.Data_all_Acks |      383402     76.51%     76.51% |        7851      1.57%     78.08% |        7847      1.57%     79.64% |        7848      1.57%     81.21% |        7851      1.57%     82.77% |        7847      1.57%     84.34% |        7845      1.57%     85.91% |        7852      1.57%     87.47% |        7849      1.57%     89.04% |        7846      1.57%     90.60% |        7845      1.57%     92.17% |        7847      1.57%     93.74% |        7847      1.57%     95.30% |        7848      1.57%     96.87% |        7848      1.57%     98.43% |        7848      1.57%    100.00% (Unspecified)
board.cache_hierarchy.ruby_system.L1Cache_Controller.IM.Data_all_Acks::total       501121                       (Unspecified)
board.cache_hierarchy.ruby_system.L1Cache_Controller.IM.LLSC_Data_all_Acks |           6    100.00%    100.00% |           0      0.00%    100.00% |           0      0.00%    100.00% |           0      0.00%    100.00% |           0      0.00%    100.00% |           0      0.00%    100.00% |           0      0.00%    100.00% |           0      0.00%    100.00% |           0      0.00%    100.00% |           0      0.00%    100.00% |           0      0.00%    100.00% |           0      0.00%    100.00% |           0      0.00%    100.00% |           0      0.00%    100.00% |           0      0.00%    100.00% |           0      0.00%    100.00% (Unspecified)
board.cache_hierarchy.ruby_system.L1Cache_Controller.IM.LLSC_Data_all_Acks::total            6                       (Unspecified)
board.cache_hierarchy.ruby_system.L1Cache_Controller.SM.Ack |          30     33.33%     33.33% |           2      2.22%     35.56% |           2      2.22%     37.78% |           2      2.22%     40.00% |           2      2.22%     42.22% |           2      2.22%     44.44% |           2      2.22%     46.67% |           2      2.22%     48.89% |           2      2.22%     51.11% |           2      2.22%     53.33% |           2      2.22%     55.56% |           2      2.22%     57.78% |           2      2.22%     60.00% |           2      2.22%     62.22% |          17     18.89%     81.11% |          17     18.89%    100.00% (Unspecified)
board.cache_hierarchy.ruby_system.L1Cache_Controller.SM.Ack::total           90                       (Unspecified)
board.cache_hierarchy.ruby_system.L1Cache_Controller.SM.Ack_all |          16     33.33%     33.33% |           2      4.17%     37.50% |           2      4.17%     41.67% |           2      4.17%     45.83% |           2      4.17%     50.00% |           2      4.17%     54.17% |           2      4.17%     58.33% |           2      4.17%     62.50% |           2      4.17%     66.67% |           2      4.17%     70.83% |           2      4.17%     75.00% |           2      4.17%     79.17% |           2      4.17%     83.33% |           2      4.17%     87.50% |           3      6.25%     93.75% |           3      6.25%    100.00% (Unspecified)
board.cache_hierarchy.ruby_system.L1Cache_Controller.SM.Ack_all::total           48                       (Unspecified)
board.cache_hierarchy.ruby_system.L1Cache_Controller.M_I.Ifetch |           1    100.00%    100.00% |           0      0.00%    100.00% |           0      0.00%    100.00% |           0      0.00%    100.00% |           0      0.00%    100.00% |           0      0.00%    100.00% |           0      0.00%    100.00% |           0      0.00%    100.00% |           0      0.00%    100.00% |           0      0.00%    100.00% |           0      0.00%    100.00% |           0      0.00%    100.00% |           0      0.00%    100.00% |           0      0.00%    100.00% |           0      0.00%    100.00% |           0      0.00%    100.00% (Unspecified)
board.cache_hierarchy.ruby_system.L1Cache_Controller.M_I.Ifetch::total            1                       (Unspecified)
board.cache_hierarchy.ruby_system.L1Cache_Controller.M_I.Inv |           0      0.00%      0.00% |           0      0.00%      0.00% |           0      0.00%      0.00% |           0      0.00%      0.00% |           0      0.00%      0.00% |           0      0.00%      0.00% |           0      0.00%      0.00% |           0      0.00%      0.00% |           0      0.00%      0.00% |           0      0.00%      0.00% |           0      0.00%      0.00% |           0      0.00%      0.00% |           1    100.00%    100.00% |           0      0.00%    100.00% |           0      0.00%    100.00% |           0      0.00%    100.00% (Unspecified)
board.cache_hierarchy.ruby_system.L1Cache_Controller.M_I.Inv::total            1                       (Unspecified)
board.cache_hierarchy.ruby_system.L1Cache_Controller.M_I.WB_Ack |      376877     98.80%     98.80% |         309      0.08%     98.88% |         336      0.09%     98.97% |         354      0.09%     99.06% |         247      0.06%     99.13% |         289      0.08%     99.20% |         312      0.08%     99.29% |         271      0.07%     99.36% |         252      0.07%     99.42% |         261      0.07%     99.49% |         340      0.09%     99.58% |         302      0.08%     99.66% |         297      0.08%     99.74% |         318      0.08%     99.82% |         376      0.10%     99.92% |         305      0.08%    100.00% (Unspecified)
board.cache_hierarchy.ruby_system.L1Cache_Controller.M_I.WB_Ack::total       381446                       (Unspecified)
board.cache_hierarchy.ruby_system.L1Cache_Controller.SINK_WB_ACK.WB_Ack |           0      0.00%      0.00% |           0      0.00%      0.00% |           0      0.00%      0.00% |           0      0.00%      0.00% |           0      0.00%      0.00% |           0      0.00%      0.00% |           0      0.00%      0.00% |           0      0.00%      0.00% |           0      0.00%      0.00% |           0      0.00%      0.00% |           0      0.00%      0.00% |           0      0.00%      0.00% |           1    100.00%    100.00% |           0      0.00%    100.00% |           0      0.00%    100.00% |           0      0.00%    100.00% (Unspecified)
board.cache_hierarchy.ruby_system.L1Cache_Controller.SINK_WB_ACK.WB_Ack::total            1                       (Unspecified)
board.cache_hierarchy.ruby_system.L1Cache_Controller.LLSC_E.Store |          15    100.00%    100.00% |           0      0.00%    100.00% |           0      0.00%    100.00% |           0      0.00%    100.00% |           0      0.00%    100.00% |           0      0.00%    100.00% |           0      0.00%    100.00% |           0      0.00%    100.00% |           0      0.00%    100.00% |           0      0.00%    100.00% |           0      0.00%    100.00% |           0      0.00%    100.00% |           0      0.00%    100.00% |           0      0.00%    100.00% |           0      0.00%    100.00% |           0      0.00%    100.00% (Unspecified)
board.cache_hierarchy.ruby_system.L1Cache_Controller.LLSC_E.Store::total           15                       (Unspecified)
board.cache_hierarchy.ruby_system.L1Cache_Controller.LLSC_M.Load |          22    100.00%    100.00% |           0      0.00%    100.00% |           0      0.00%    100.00% |           0      0.00%    100.00% |           0      0.00%    100.00% |           0      0.00%    100.00% |           0      0.00%    100.00% |           0      0.00%    100.00% |           0      0.00%    100.00% |           0      0.00%    100.00% |           0      0.00%    100.00% |           0      0.00%    100.00% |           0      0.00%    100.00% |           0      0.00%    100.00% |           0      0.00%    100.00% |           0      0.00%    100.00% (Unspecified)
board.cache_hierarchy.ruby_system.L1Cache_Controller.LLSC_M.Load::total           22                       (Unspecified)
board.cache_hierarchy.ruby_system.L1Cache_Controller.LLSC_M.Store |         123    100.00%    100.00% |           0      0.00%    100.00% |           0      0.00%    100.00% |           0      0.00%    100.00% |           0      0.00%    100.00% |           0      0.00%    100.00% |           0      0.00%    100.00% |           0      0.00%    100.00% |           0      0.00%    100.00% |           0      0.00%    100.00% |           0      0.00%    100.00% |           0      0.00%    100.00% |           0      0.00%    100.00% |           0      0.00%    100.00% |           0      0.00%    100.00% |           0      0.00%    100.00% (Unspecified)
board.cache_hierarchy.ruby_system.L1Cache_Controller.LLSC_M.Store::total          123                       (Unspecified)
board.cache_hierarchy.ruby_system.L1Cache_Controller.LLSC_M.LLSC_Timeout |         128    100.00%    100.00% |           0      0.00%    100.00% |           0      0.00%    100.00% |           0      0.00%    100.00% |           0      0.00%    100.00% |           0      0.00%    100.00% |           0      0.00%    100.00% |           0      0.00%    100.00% |           0      0.00%    100.00% |           0      0.00%    100.00% |           0      0.00%    100.00% |           0      0.00%    100.00% |           0      0.00%    100.00% |           0      0.00%    100.00% |           0      0.00%    100.00% |           0      0.00%    100.00% (Unspecified)
board.cache_hierarchy.ruby_system.L1Cache_Controller.LLSC_M.LLSC_Timeout::total          128                       (Unspecified)
board.cache_hierarchy.ruby_system.L2Cache_Controller.L1_GET_INSTR        10947      0.00%      0.00% (Unspecified)
board.cache_hierarchy.ruby_system.L2Cache_Controller.L1_GETS       256663      0.00%      0.00% (Unspecified)
board.cache_hierarchy.ruby_system.L2Cache_Controller.L1_GETX       501292      0.00%      0.00% (Unspecified)
board.cache_hierarchy.ruby_system.L2Cache_Controller.L1_UPGRADE           48      0.00%      0.00% (Unspecified)
board.cache_hierarchy.ruby_system.L2Cache_Controller.L1_PUTX       381446      0.00%      0.00% (Unspecified)
board.cache_hierarchy.ruby_system.L2Cache_Controller.L1_PUTX_old            2      0.00%      0.00% (Unspecified)
board.cache_hierarchy.ruby_system.L2Cache_Controller.L2_Replacement       375312      0.00%      0.00% (Unspecified)
board.cache_hierarchy.ruby_system.L2Cache_Controller.L2_Replacement_clean       378907      0.00%      0.00% (Unspecified)
board.cache_hierarchy.ruby_system.L2Cache_Controller.Mem_Data       758315      0.00%      0.00% (Unspecified)
board.cache_hierarchy.ruby_system.L2Cache_Controller.Mem_Ack       754219      0.00%      0.00% (Unspecified)
board.cache_hierarchy.ruby_system.L2Cache_Controller.WB_Data       126344      0.00%      0.00% (Unspecified)
board.cache_hierarchy.ruby_system.L2Cache_Controller.WB_Data_clean           22      0.00%      0.00% (Unspecified)
board.cache_hierarchy.ruby_system.L2Cache_Controller.Ack         7810      0.00%      0.00% (Unspecified)
board.cache_hierarchy.ruby_system.L2Cache_Controller.Ack_all       246623      0.00%      0.00% (Unspecified)
board.cache_hierarchy.ruby_system.L2Cache_Controller.Unblock          138      0.00%      0.00% (Unspecified)
board.cache_hierarchy.ruby_system.L2Cache_Controller.Exclusive_Unblock       756291      0.00%      0.00% (Unspecified)
board.cache_hierarchy.ruby_system.L2Cache_Controller.NP.L1_GET_INSTR         2259      0.00%      0.00% (Unspecified)
board.cache_hierarchy.ruby_system.L2Cache_Controller.NP.L1_GETS       255083      0.00%      0.00% (Unspecified)
board.cache_hierarchy.ruby_system.L2Cache_Controller.NP.L1_GETX       500973      0.00%      0.00% (Unspecified)
board.cache_hierarchy.ruby_system.L2Cache_Controller.NP.L1_PUTX_old            1      0.00%      0.00% (Unspecified)
board.cache_hierarchy.ruby_system.L2Cache_Controller.SS.L1_GET_INSTR         3669      0.00%      0.00% (Unspecified)
board.cache_hierarchy.ruby_system.L2Cache_Controller.SS.L1_GETS          476      0.00%      0.00% (Unspecified)
board.cache_hierarchy.ruby_system.L2Cache_Controller.SS.L1_UPGRADE           48      0.00%      0.00% (Unspecified)
board.cache_hierarchy.ruby_system.L2Cache_Controller.SS.L2_Replacement           69      0.00%      0.00% (Unspecified)
board.cache_hierarchy.ruby_system.L2Cache_Controller.SS.L2_Replacement_clean         1825      0.00%      0.00% (Unspecified)
board.cache_hierarchy.ruby_system.L2Cache_Controller.M.L1_GET_INSTR            1      0.00%      0.00% (Unspecified)
board.cache_hierarchy.ruby_system.L2Cache_Controller.M.L1_GETS           37      0.00%      0.00% (Unspecified)
board.cache_hierarchy.ruby_system.L2Cache_Controller.M.L1_GETX           10      0.00%      0.00% (Unspecified)
board.cache_hierarchy.ruby_system.L2Cache_Controller.M.L2_Replacement       375200      0.00%      0.00% (Unspecified)
board.cache_hierarchy.ruby_system.L2Cache_Controller.M.L2_Replacement_clean         6168      0.00%      0.00% (Unspecified)
board.cache_hierarchy.ruby_system.L2Cache_Controller.MT.L1_GETS          138      0.00%      0.00% (Unspecified)
board.cache_hierarchy.ruby_system.L2Cache_Controller.MT.L1_GETX          144      0.00%      0.00% (Unspecified)
board.cache_hierarchy.ruby_system.L2Cache_Controller.MT.L1_PUTX       381446      0.00%      0.00% (Unspecified)
board.cache_hierarchy.ruby_system.L2Cache_Controller.MT.L2_Replacement           43      0.00%      0.00% (Unspecified)
board.cache_hierarchy.ruby_system.L2Cache_Controller.MT.L2_Replacement_clean       370914      0.00%      0.00% (Unspecified)
board.cache_hierarchy.ruby_system.L2Cache_Controller.M_I.L1_GET_INSTR          783      0.00%      0.00% (Unspecified)
board.cache_hierarchy.ruby_system.L2Cache_Controller.M_I.L1_GETS          811      0.00%      0.00% (Unspecified)
board.cache_hierarchy.ruby_system.L2Cache_Controller.M_I.L1_GETX           54      0.00%      0.00% (Unspecified)
board.cache_hierarchy.ruby_system.L2Cache_Controller.M_I.Mem_Ack       754219      0.00%      0.00% (Unspecified)
board.cache_hierarchy.ruby_system.L2Cache_Controller.MT_I.WB_Data           42      0.00%      0.00% (Unspecified)
board.cache_hierarchy.ruby_system.L2Cache_Controller.MT_I.Ack_all            1      0.00%      0.00% (Unspecified)
board.cache_hierarchy.ruby_system.L2Cache_Controller.MCT_I.L1_GETS            1      0.00%      0.00% (Unspecified)
board.cache_hierarchy.ruby_system.L2Cache_Controller.MCT_I.L1_PUTX_old            1      0.00%      0.00% (Unspecified)
board.cache_hierarchy.ruby_system.L2Cache_Controller.MCT_I.WB_Data       126185      0.00%      0.00% (Unspecified)
board.cache_hierarchy.ruby_system.L2Cache_Controller.MCT_I.WB_Data_clean            1      0.00%      0.00% (Unspecified)
board.cache_hierarchy.ruby_system.L2Cache_Controller.MCT_I.Ack_all       244728      0.00%      0.00% (Unspecified)
board.cache_hierarchy.ruby_system.L2Cache_Controller.I_I.L1_GET_INSTR            8      0.00%      0.00% (Unspecified)
board.cache_hierarchy.ruby_system.L2Cache_Controller.I_I.Ack         7616      0.00%      0.00% (Unspecified)
board.cache_hierarchy.ruby_system.L2Cache_Controller.I_I.Ack_all         1825      0.00%      0.00% (Unspecified)
board.cache_hierarchy.ruby_system.L2Cache_Controller.S_I.Ack          194      0.00%      0.00% (Unspecified)
board.cache_hierarchy.ruby_system.L2Cache_Controller.S_I.Ack_all           69      0.00%      0.00% (Unspecified)
board.cache_hierarchy.ruby_system.L2Cache_Controller.ISS.L1_GETS            4      0.00%      0.00% (Unspecified)
board.cache_hierarchy.ruby_system.L2Cache_Controller.ISS.Mem_Data       255079      0.00%      0.00% (Unspecified)
board.cache_hierarchy.ruby_system.L2Cache_Controller.IS.L1_GET_INSTR         4227      0.00%      0.00% (Unspecified)
board.cache_hierarchy.ruby_system.L2Cache_Controller.IS.L1_GETS           14      0.00%      0.00% (Unspecified)
board.cache_hierarchy.ruby_system.L2Cache_Controller.IS.Mem_Data         2263      0.00%      0.00% (Unspecified)
board.cache_hierarchy.ruby_system.L2Cache_Controller.IM.L1_GETX           14      0.00%      0.00% (Unspecified)
board.cache_hierarchy.ruby_system.L2Cache_Controller.IM.Mem_Data       500973      0.00%      0.00% (Unspecified)
board.cache_hierarchy.ruby_system.L2Cache_Controller.SS_MB.L1_GETS           14      0.00%      0.00% (Unspecified)
board.cache_hierarchy.ruby_system.L2Cache_Controller.SS_MB.Exclusive_Unblock           48      0.00%      0.00% (Unspecified)
board.cache_hierarchy.ruby_system.L2Cache_Controller.MT_MB.L1_GETS           13      0.00%      0.00% (Unspecified)
board.cache_hierarchy.ruby_system.L2Cache_Controller.MT_MB.L1_GETX           97      0.00%      0.00% (Unspecified)
board.cache_hierarchy.ruby_system.L2Cache_Controller.MT_MB.Exclusive_Unblock       756243      0.00%      0.00% (Unspecified)
board.cache_hierarchy.ruby_system.L2Cache_Controller.MT_IIB.L1_GETS           67      0.00%      0.00% (Unspecified)
board.cache_hierarchy.ruby_system.L2Cache_Controller.MT_IIB.WB_Data          113      0.00%      0.00% (Unspecified)
board.cache_hierarchy.ruby_system.L2Cache_Controller.MT_IIB.WB_Data_clean           21      0.00%      0.00% (Unspecified)
board.cache_hierarchy.ruby_system.L2Cache_Controller.MT_IIB.Unblock            4      0.00%      0.00% (Unspecified)
board.cache_hierarchy.ruby_system.L2Cache_Controller.MT_IB.WB_Data            4      0.00%      0.00% (Unspecified)
board.cache_hierarchy.ruby_system.L2Cache_Controller.MT_SB.L1_GETS            5      0.00%      0.00% (Unspecified)
board.cache_hierarchy.ruby_system.L2Cache_Controller.MT_SB.Unblock          134      0.00%      0.00% (Unspecified)
board.cache_hierarchy.ruby_system.RequestType.LD.latency_hist_seqr::bucket_size          256                       (Unspecified)
board.cache_hierarchy.ruby_system.RequestType.LD.latency_hist_seqr::max_bucket         2559                       (Unspecified)
board.cache_hierarchy.ruby_system.RequestType.LD.latency_hist_seqr::samples     24495220                       (Unspecified)
board.cache_hierarchy.ruby_system.RequestType.LD.latency_hist_seqr::mean     4.993734                       (Unspecified)
board.cache_hierarchy.ruby_system.RequestType.LD.latency_hist_seqr::gmean     1.063127                       (Unspecified)
board.cache_hierarchy.ruby_system.RequestType.LD.latency_hist_seqr::stdev    42.931923                       (Unspecified)
board.cache_hierarchy.ruby_system.RequestType.LD.latency_hist_seqr |    24284910     99.14%     99.14% |      164442      0.67%     99.81% |       39260      0.16%     99.97% |        2179      0.01%     99.98% |        2694      0.01%     99.99% |        1581      0.01%    100.00% |         153      0.00%    100.00% |           1      0.00%    100.00% |           0      0.00%    100.00% |           0      0.00%    100.00% (Unspecified)
board.cache_hierarchy.ruby_system.RequestType.LD.latency_hist_seqr::total     24495220                       (Unspecified)
board.cache_hierarchy.ruby_system.RequestType.LD.hit_latency_hist_seqr::bucket_size            1                       (Unspecified)
board.cache_hierarchy.ruby_system.RequestType.LD.hit_latency_hist_seqr::max_bucket            9                       (Unspecified)
board.cache_hierarchy.ruby_system.RequestType.LD.hit_latency_hist_seqr::samples     24239468                       (Unspecified)
board.cache_hierarchy.ruby_system.RequestType.LD.hit_latency_hist_seqr::mean            1                       (Unspecified)
board.cache_hierarchy.ruby_system.RequestType.LD.hit_latency_hist_seqr::gmean            1                       (Unspecified)
board.cache_hierarchy.ruby_system.RequestType.LD.hit_latency_hist_seqr |           0      0.00%      0.00% |    24239468    100.00%    100.00% |           0      0.00%    100.00% |           0      0.00%    100.00% |           0      0.00%    100.00% |           0      0.00%    100.00% |           0      0.00%    100.00% |           0      0.00%    100.00% |           0      0.00%    100.00% |           0      0.00%    100.00% (Unspecified)
board.cache_hierarchy.ruby_system.RequestType.LD.hit_latency_hist_seqr::total     24239468                       (Unspecified)
board.cache_hierarchy.ruby_system.RequestType.LD.miss_latency_hist_seqr::bucket_size          256                       (Unspecified)
board.cache_hierarchy.ruby_system.RequestType.LD.miss_latency_hist_seqr::max_bucket         2559                       (Unspecified)
board.cache_hierarchy.ruby_system.RequestType.LD.miss_latency_hist_seqr::samples       255752                       (Unspecified)
board.cache_hierarchy.ruby_system.RequestType.LD.miss_latency_hist_seqr::mean   383.508774                       (Unspecified)
board.cache_hierarchy.ruby_system.RequestType.LD.miss_latency_hist_seqr::gmean   351.776760                       (Unspecified)
board.cache_hierarchy.ruby_system.RequestType.LD.miss_latency_hist_seqr::stdev   178.175787                       (Unspecified)
board.cache_hierarchy.ruby_system.RequestType.LD.miss_latency_hist_seqr |       45442     17.77%     17.77% |      164442     64.30%     82.07% |       39260     15.35%     97.42% |        2179      0.85%     98.27% |        2694      1.05%     99.32% |        1581      0.62%     99.94% |         153      0.06%    100.00% |           1      0.00%    100.00% |           0      0.00%    100.00% |           0      0.00%    100.00% (Unspecified)
board.cache_hierarchy.ruby_system.RequestType.LD.miss_latency_hist_seqr::total       255752                       (Unspecified)
board.cache_hierarchy.ruby_system.RequestType.ST.latency_hist_seqr::bucket_size          256                       (Unspecified)
board.cache_hierarchy.ruby_system.RequestType.ST.latency_hist_seqr::max_bucket         2559                       (Unspecified)
board.cache_hierarchy.ruby_system.RequestType.ST.latency_hist_seqr::samples      7697978                       (Unspecified)
board.cache_hierarchy.ruby_system.RequestType.ST.latency_hist_seqr::mean    15.997523                       (Unspecified)
board.cache_hierarchy.ruby_system.RequestType.ST.latency_hist_seqr::gmean     1.460003                       (Unspecified)
board.cache_hierarchy.ruby_system.RequestType.ST.latency_hist_seqr::stdev    70.056028                       (Unspecified)
board.cache_hierarchy.ruby_system.RequestType.ST.latency_hist_seqr |     7570508     98.34%     98.34% |       83464      1.08%     99.43% |       37016      0.48%     99.91% |        4926      0.06%     99.97% |        1195      0.02%     99.99% |         696      0.01%    100.00% |         172      0.00%    100.00% |           0      0.00%    100.00% |           1      0.00%    100.00% |           0      0.00%    100.00% (Unspecified)
board.cache_hierarchy.ruby_system.RequestType.ST.latency_hist_seqr::total      7697978                       (Unspecified)
board.cache_hierarchy.ruby_system.RequestType.ST.hit_latency_hist_seqr::bucket_size            1                       (Unspecified)
board.cache_hierarchy.ruby_system.RequestType.ST.hit_latency_hist_seqr::max_bucket            9                       (Unspecified)
board.cache_hierarchy.ruby_system.RequestType.ST.hit_latency_hist_seqr::samples      7196809                       (Unspecified)
board.cache_hierarchy.ruby_system.RequestType.ST.hit_latency_hist_seqr::mean     1.052108                       (Unspecified)
board.cache_hierarchy.ruby_system.RequestType.ST.hit_latency_hist_seqr::gmean     1.036779                       (Unspecified)
board.cache_hierarchy.ruby_system.RequestType.ST.hit_latency_hist_seqr::stdev     0.222244                       (Unspecified)
board.cache_hierarchy.ruby_system.RequestType.ST.hit_latency_hist_seqr |           0      0.00%      0.00% |     6821799     94.79%     94.79% |      375010      5.21%    100.00% |           0      0.00%    100.00% |           0      0.00%    100.00% |           0      0.00%    100.00% |           0      0.00%    100.00% |           0      0.00%    100.00% |           0      0.00%    100.00% |           0      0.00%    100.00% (Unspecified)
board.cache_hierarchy.ruby_system.RequestType.ST.hit_latency_hist_seqr::total      7196809                       (Unspecified)
board.cache_hierarchy.ruby_system.RequestType.ST.miss_latency_hist_seqr::bucket_size          256                       (Unspecified)
board.cache_hierarchy.ruby_system.RequestType.ST.miss_latency_hist_seqr::max_bucket         2559                       (Unspecified)
board.cache_hierarchy.ruby_system.RequestType.ST.miss_latency_hist_seqr::samples       501169                       (Unspecified)
board.cache_hierarchy.ruby_system.RequestType.ST.miss_latency_hist_seqr::mean   230.614342                       (Unspecified)
board.cache_hierarchy.ruby_system.RequestType.ST.miss_latency_hist_seqr::gmean   199.173111                       (Unspecified)
board.cache_hierarchy.ruby_system.RequestType.ST.miss_latency_hist_seqr::stdev   161.604967                       (Unspecified)
board.cache_hierarchy.ruby_system.RequestType.ST.miss_latency_hist_seqr |      373699     74.57%     74.57% |       83464     16.65%     91.22% |       37016      7.39%     98.61% |        4926      0.98%     99.59% |        1195      0.24%     99.83% |         696      0.14%     99.97% |         172      0.03%    100.00% |           0      0.00%    100.00% |           1      0.00%    100.00% |           0      0.00%    100.00% (Unspecified)
board.cache_hierarchy.ruby_system.RequestType.ST.miss_latency_hist_seqr::total       501169                       (Unspecified)
board.cache_hierarchy.ruby_system.RequestType.IFETCH.latency_hist_seqr::bucket_size          256                       (Unspecified)
board.cache_hierarchy.ruby_system.RequestType.IFETCH.latency_hist_seqr::max_bucket         2559                       (Unspecified)
board.cache_hierarchy.ruby_system.RequestType.IFETCH.latency_hist_seqr::samples     17029367                       (Unspecified)
board.cache_hierarchy.ruby_system.RequestType.IFETCH.latency_hist_seqr::mean     1.097119                       (Unspecified)
board.cache_hierarchy.ruby_system.RequestType.IFETCH.latency_hist_seqr::gmean     1.002587                       (Unspecified)
board.cache_hierarchy.ruby_system.RequestType.IFETCH.latency_hist_seqr::stdev     5.941702                       (Unspecified)
board.cache_hierarchy.ruby_system.RequestType.IFETCH.latency_hist_seqr |    17027075     99.99%     99.99% |        1842      0.01%    100.00% |         357      0.00%    100.00% |          31      0.00%    100.00% |          34      0.00%    100.00% |          28      0.00%    100.00% |           0      0.00%    100.00% |           0      0.00%    100.00% |           0      0.00%    100.00% |           0      0.00%    100.00% (Unspecified)
board.cache_hierarchy.ruby_system.RequestType.IFETCH.latency_hist_seqr::total     17029367                       (Unspecified)
board.cache_hierarchy.ruby_system.RequestType.IFETCH.hit_latency_hist_seqr::bucket_size            1                       (Unspecified)
board.cache_hierarchy.ruby_system.RequestType.IFETCH.hit_latency_hist_seqr::max_bucket            9                       (Unspecified)
board.cache_hierarchy.ruby_system.RequestType.IFETCH.hit_latency_hist_seqr::samples     17019211                       (Unspecified)
board.cache_hierarchy.ruby_system.RequestType.IFETCH.hit_latency_hist_seqr::mean            1                       (Unspecified)
board.cache_hierarchy.ruby_system.RequestType.IFETCH.hit_latency_hist_seqr::gmean            1                       (Unspecified)
board.cache_hierarchy.ruby_system.RequestType.IFETCH.hit_latency_hist_seqr |           0      0.00%      0.00% |    17019211    100.00%    100.00% |           0      0.00%    100.00% |           0      0.00%    100.00% |           0      0.00%    100.00% |           0      0.00%    100.00% |           0      0.00%    100.00% |           0      0.00%    100.00% |           0      0.00%    100.00% |           0      0.00%    100.00% (Unspecified)
board.cache_hierarchy.ruby_system.RequestType.IFETCH.hit_latency_hist_seqr::total     17019211                       (Unspecified)
board.cache_hierarchy.ruby_system.RequestType.IFETCH.miss_latency_hist_seqr::bucket_size          256                       (Unspecified)
board.cache_hierarchy.ruby_system.RequestType.IFETCH.miss_latency_hist_seqr::max_bucket         2559                       (Unspecified)
board.cache_hierarchy.ruby_system.RequestType.IFETCH.miss_latency_hist_seqr::samples        10156                       (Unspecified)
board.cache_hierarchy.ruby_system.RequestType.IFETCH.miss_latency_hist_seqr::mean   163.846987                       (Unspecified)
board.cache_hierarchy.ruby_system.RequestType.IFETCH.miss_latency_hist_seqr::gmean    76.079133                       (Unspecified)
board.cache_hierarchy.ruby_system.RequestType.IFETCH.miss_latency_hist_seqr::stdev   180.822016                       (Unspecified)
board.cache_hierarchy.ruby_system.RequestType.IFETCH.miss_latency_hist_seqr |        7864     77.43%     77.43% |        1842     18.14%     95.57% |         357      3.52%     99.08% |          31      0.31%     99.39% |          34      0.33%     99.72% |          28      0.28%    100.00% |           0      0.00%    100.00% |           0      0.00%    100.00% |           0      0.00%    100.00% |           0      0.00%    100.00% (Unspecified)
board.cache_hierarchy.ruby_system.RequestType.IFETCH.miss_latency_hist_seqr::total        10156                       (Unspecified)
board.cache_hierarchy.ruby_system.RequestType.Load_Linked.latency_hist_seqr::bucket_size           32                       (Unspecified)
board.cache_hierarchy.ruby_system.RequestType.Load_Linked.latency_hist_seqr::max_bucket          319                       (Unspecified)
board.cache_hierarchy.ruby_system.RequestType.Load_Linked.latency_hist_seqr::samples          128                       (Unspecified)
board.cache_hierarchy.ruby_system.RequestType.Load_Linked.latency_hist_seqr::mean     8.421875                       (Unspecified)
board.cache_hierarchy.ruby_system.RequestType.Load_Linked.latency_hist_seqr::gmean     1.267937                       (Unspecified)
board.cache_hierarchy.ruby_system.RequestType.Load_Linked.latency_hist_seqr::stdev    33.843458                       (Unspecified)
board.cache_hierarchy.ruby_system.RequestType.Load_Linked.latency_hist_seqr |         122     95.31%     95.31% |           0      0.00%     95.31% |           0      0.00%     95.31% |           0      0.00%     95.31% |           4      3.12%     98.44% |           2      1.56%    100.00% |           0      0.00%    100.00% |           0      0.00%    100.00% |           0      0.00%    100.00% |           0      0.00%    100.00% (Unspecified)
board.cache_hierarchy.ruby_system.RequestType.Load_Linked.latency_hist_seqr::total          128                       (Unspecified)
board.cache_hierarchy.ruby_system.RequestType.Load_Linked.hit_latency_hist_seqr::bucket_size            1                       (Unspecified)
board.cache_hierarchy.ruby_system.RequestType.Load_Linked.hit_latency_hist_seqr::max_bucket            9                       (Unspecified)
board.cache_hierarchy.ruby_system.RequestType.Load_Linked.hit_latency_hist_seqr::samples          122                       (Unspecified)
board.cache_hierarchy.ruby_system.RequestType.Load_Linked.hit_latency_hist_seqr::mean            1                       (Unspecified)
board.cache_hierarchy.ruby_system.RequestType.Load_Linked.hit_latency_hist_seqr::gmean            1                       (Unspecified)
[...]
board.processor.cores9.core.commitStats0.committedInstType::SimdDotProd            0      0.00%     44.89% # Class of committed instruction. (Count)
board.processor.cores9.core.commitStats0.committedInstType::Matrix            0      0.00%     44.89% # Class of committed instruction. (Count)
board.processor.cores9.core.commitStats0.committedInstType::MatrixMov            0      0.00%     44.89% # Class of committed instruction. (Count)
board.processor.cores9.core.commitStats0.committedInstType::MatrixOP            0      0.00%     44.89% # Class of committed instruction. (Count)
board.processor.cores9.core.commitStats0.committedInstType::MemRead       533729     34.36%     79.25% # Class of committed instruction. (Count)
board.processor.cores9.core.commitStats0.committedInstType::MemWrite        72308      4.65%     83.91% # Class of committed instruction. (Count)
board.processor.cores9.core.commitStats0.committedInstType::FloatMemRead       187501     12.07%     95.98% # Class of committed instruction. (Count)
board.processor.cores9.core.commitStats0.committedInstType::FloatMemWrite        62513      4.02%    100.00% # Class of committed instruction. (Count)
board.processor.cores9.core.commitStats0.committedInstType::InstPrefetch            0      0.00%    100.00% # Class of committed instruction. (Count)
board.processor.cores9.core.commitStats0.committedInstType::SimdUnitStrideLoad            0      0.00%    100.00% # Class of committed instruction. (Count)
board.processor.cores9.core.commitStats0.committedInstType::SimdUnitStrideStore            0      0.00%    100.00% # Class of committed instruction. (Count)
board.processor.cores9.core.commitStats0.committedInstType::SimdUnitStrideMaskLoad            0      0.00%    100.00% # Class of committed instruction. (Count)
board.processor.cores9.core.commitStats0.committedInstType::SimdUnitStrideMaskStore            0      0.00%    100.00% # Class of committed instruction. (Count)
board.processor.cores9.core.commitStats0.committedInstType::SimdStridedLoad            0      0.00%    100.00% # Class of committed instruction. (Count)
board.processor.cores9.core.commitStats0.committedInstType::SimdStridedStore            0      0.00%    100.00% # Class of committed instruction. (Count)
board.processor.cores9.core.commitStats0.committedInstType::SimdIndexedLoad            0      0.00%    100.00% # Class of committed instruction. (Count)
board.processor.cores9.core.commitStats0.committedInstType::SimdIndexedStore            0      0.00%    100.00% # Class of committed instruction. (Count)
board.processor.cores9.core.commitStats0.committedInstType::SimdWholeRegisterLoad            0      0.00%    100.00% # Class of committed instruction. (Count)
board.processor.cores9.core.commitStats0.committedInstType::SimdWholeRegisterStore            0      0.00%    100.00% # Class of committed instruction. (Count)
board.processor.cores9.core.commitStats0.committedInstType::SimdUnitStrideFaultOnlyFirstLoad            0      0.00%    100.00% # Class of committed instruction. (Count)
board.processor.cores9.core.commitStats0.committedInstType::SimdUnitStrideSegmentedLoad            0      0.00%    100.00% # Class of committed instruction. (Count)
board.processor.cores9.core.commitStats0.committedInstType::SimdUnitStrideSegmentedStore            0      0.00%    100.00% # Class of committed instruction. (Count)
board.processor.cores9.core.commitStats0.committedInstType::SimdUnitStrideSegmentedFaultOnlyFirstLoad            0      0.00%    100.00% # Class of committed instruction. (Count)
board.processor.cores9.core.commitStats0.committedInstType::SimdStrideSegmentedLoad            0      0.00%    100.00% # Class of committed instruction. (Count)
board.processor.cores9.core.commitStats0.committedInstType::SimdStrideSegmentedStore            0      0.00%    100.00% # Class of committed instruction. (Count)
board.processor.cores9.core.commitStats0.committedInstType::SimdExt            0      0.00%    100.00% # Class of committed instruction. (Count)
board.processor.cores9.core.commitStats0.committedInstType::SimdFloatExt            0      0.00%    100.00% # Class of committed instruction. (Count)
board.processor.cores9.core.commitStats0.committedInstType::SimdConfig            0      0.00%    100.00% # Class of committed instruction. (Count)
board.processor.cores9.core.commitStats0.committedInstType::SimdBf16Add            0      0.00%    100.00% # Class of committed instruction. (Count)
board.processor.cores9.core.commitStats0.committedInstType::SimdBf16Cmp            0      0.00%    100.00% # Class of committed instruction. (Count)
board.processor.cores9.core.commitStats0.committedInstType::SimdBf16Cvt            0      0.00%    100.00% # Class of committed instruction. (Count)
board.processor.cores9.core.commitStats0.committedInstType::SimdBf16DotProd            0      0.00%    100.00% # Class of committed instruction. (Count)
board.processor.cores9.core.commitStats0.committedInstType::SimdBf16MatMultAcc            0      0.00%    100.00% # Class of committed instruction. (Count)
board.processor.cores9.core.commitStats0.committedInstType::SimdBf16Mult            0      0.00%    100.00% # Class of committed instruction. (Count)
board.processor.cores9.core.commitStats0.committedInstType::SimdBf16MultAcc            0      0.00%    100.00% # Class of committed instruction. (Count)
board.processor.cores9.core.commitStats0.committedInstType::Bf16Cvt            0      0.00%    100.00% # Class of committed instruction. (Count)
board.processor.cores9.core.commitStats0.committedInstType::System            0      0.00%    100.00% # Class of committed instruction. (Count)
board.processor.cores9.core.commitStats0.committedInstType::total      1553461                       # Class of committed instruction. (Count)
board.processor.cores9.core.commitStats0.committedControl::IsControl        81789                       # Class of control type instructions committed (Count)
board.processor.cores9.core.commitStats0.committedControl::IsDirectControl        76981                       # Class of control type instructions committed (Count)
board.processor.cores9.core.commitStats0.committedControl::IsIndirectControl         4808                       # Class of control type instructions committed (Count)
board.processor.cores9.core.commitStats0.committedControl::IsCondControl        72155                       # Class of control type instructions committed (Count)
board.processor.cores9.core.commitStats0.committedControl::IsUncondControl         9634                       # Class of control type instructions committed (Count)
board.processor.cores9.core.commitStats0.committedControl::IsCall         4811                       # Class of control type instructions committed (Count)
board.processor.cores9.core.commitStats0.committedControl::IsReturn         4803                       # Class of control type instructions committed (Count)
board.processor.cores9.core.commitStats0.functionCalls         4811                       # Number of function calls committed (Count)
board.processor.cores9.core.commitStats0.numCallsReturns         9614                       # Number of function calls and returns committed (Count)
board.processor.cores9.core.executeStats0.numInsts      1553454                       # Number of executed instructions (Count)
board.processor.cores9.core.executeStats0.numNop            0                       # Number of nop insts executed (Count)
board.processor.cores9.core.executeStats0.numBranches        81789                       # Number of branches executed (Count)
board.processor.cores9.core.executeStats0.numLoadInsts       721226                       # Number of load instructions executed (Count)
board.processor.cores9.core.executeStats0.numStoreInsts       134825                       # Number of stores executed (Count)
board.processor.cores9.core.executeStats0.instRate     0.144758                       # Inst execution rate ((Count/Cycle))
board.processor.cores9.core.executeStats0.numFpAluAccesses       375014                       # Number of float alu accesses (Count)
board.processor.cores9.core.executeStats0.numFpRegReads       312513                       # Number of times the floating registers were read (Count)
board.processor.cores9.core.executeStats0.numFpRegWrites       312501                       # Number of times the floating registers were written (Count)
board.processor.cores9.core.executeStats0.numIntAluAccesses      1428745                       # Number of integer alu accesses (Count)
board.processor.cores9.core.executeStats0.numIntRegReads      1750862                       # Number of times the integer registers were read (Count)
board.processor.cores9.core.executeStats0.numIntRegWrites      1024372                       # Number of times the integer registers were written (Count)
board.processor.cores9.core.executeStats0.numMemRefs       856051                       # Number of memory refs (Count)
board.processor.cores9.core.executeStats0.numVecAluAccesses            0                       # Number of vector alu accesses (Count)
board.processor.cores9.core.executeStats0.numDiscardedOps          318                       # Number of ops (including micro ops) which were discarded before commit (Count)
board.processor.cores9.core.fetch2.totalInstructions      1554872                       # Total number of instructions successfully decoded (Count)
board.processor.cores9.core.fetch2.intInstructions       573188                       # Number of integer instructions successfully decoded (Count)
board.processor.cores9.core.fetch2.fpInstructions       125002                       # Number of floating point instructions successfully decoded (Count)
board.processor.cores9.core.fetch2.vecInstructions            0                       # Number of SIMD instructions successfully decoded (Count)
board.processor.cores9.core.fetch2.loadInstructions       721672                       # Number of memory load instructions successfully decoded (Count)
board.processor.cores9.core.fetch2.storeInstructions       134950                       # Number of memory store instructions successfully decoded (Count)
board.processor.cores9.core.fetch2.amoInstructions            0                       # Number of memory atomic instructions successfully decoded (Count)
board.processor.cores9.core.fetchStats0.numInsts      1554872                       # Number of instructions fetched (thread level) (Count)
board.processor.cores9.core.fetchStats0.numOps            0                       # Number of ops (including micro ops) fetched (thread level) (Count)
board.processor.cores9.core.fetchStats0.fetchRate     0.144891                       # Number of inst fetches per cycle ((Count/Cycle))
board.processor.cores9.core.fetchStats0.numBranches        82056                       # Number of branches fetched (Count)
board.processor.cores9.core.fetchStats0.branchRate     0.007646                       # Number of branch fetches per cycle (Ratio)
board.processor.cores9.core.fetchStats0.numFetchSuspends            0                       # Number of times Execute suspended instruction fetching (Count)
board.processor.cores9.core.mmu.dtb.readHits            0                       # read hits (Count)
board.processor.cores9.core.mmu.dtb.readMisses            0                       # read misses (Count)
board.processor.cores9.core.mmu.dtb.readAccesses            0                       # read accesses (Count)
board.processor.cores9.core.mmu.dtb.writeHits            0                       # write hits (Count)
board.processor.cores9.core.mmu.dtb.writeMisses            0                       # write misses (Count)
board.processor.cores9.core.mmu.dtb.writeAccesses            0                       # write accesses (Count)
board.processor.cores9.core.mmu.dtb.hits            0                       # Total TLB (read and write) hits (Count)
board.processor.cores9.core.mmu.dtb.misses            0                       # Total TLB (read and write) misses (Count)
board.processor.cores9.core.mmu.dtb.accesses            0                       # Total TLB (read and write) accesses (Count)
board.processor.cores9.core.mmu.dtb.walker.num_4kb_walks            0                       # Completed page walks with 4KB pages (Count)
board.processor.cores9.core.mmu.dtb.walker.num_64kb_walks            0                       # Completed page walks with 64KB pages (Count)
board.processor.cores9.core.mmu.dtb.walker.num_2mb_walks            0                       # Completed page walks with 2MB pages (Count)
board.processor.cores9.core.mmu.dtb.walker.power_state.pwrStateResidencyTicks::UNDEFINED  38484267876                       # Cumulative time (in ticks) in various power states (Tick)
board.processor.cores9.core.mmu.itb.readHits            0                       # read hits (Count)
board.processor.cores9.core.mmu.itb.readMisses            0                       # read misses (Count)
board.processor.cores9.core.mmu.itb.readAccesses            0                       # read accesses (Count)
board.processor.cores9.core.mmu.itb.writeHits            0                       # write hits (Count)
board.processor.cores9.core.mmu.itb.writeMisses            0                       # write misses (Count)
board.processor.cores9.core.mmu.itb.writeAccesses            0                       # write accesses (Count)
board.processor.cores9.core.mmu.itb.hits            0                       # Total TLB (read and write) hits (Count)
board.processor.cores9.core.mmu.itb.misses            0                       # Total TLB (read and write) misses (Count)
board.processor.cores9.core.mmu.itb.accesses            0                       # Total TLB (read and write) accesses (Count)
board.processor.cores9.core.mmu.itb.walker.num_4kb_walks            0                       # Completed page walks with 4KB pages (Count)
board.processor.cores9.core.mmu.itb.walker.num_64kb_walks            0                       # Completed page walks with 64KB pages (Count)
board.processor.cores9.core.mmu.itb.walker.num_2mb_walks            0                       # Completed page walks with 2MB pages (Count)
board.processor.cores9.core.mmu.itb.walker.power_state.pwrStateResidencyTicks::UNDEFINED  38484267876                       # Cumulative time (in ticks) in various power states (Tick)
board.processor.cores9.core.power_state.pwrStateResidencyTicks::ON  38484267876                       # Cumulative time (in ticks) in various power states (Tick)
board.processor.cores9.core.thread_0.numInsts      1553454                       # Number of Instructions committed (Count)
board.processor.cores9.core.thread_0.numOps      1553461                       # Number of Ops committed (Count)
board.processor.cores9.core.thread_0.numMemRefs       856051                       # Number of Memory References (Count)
board.workload.inst.arm                             0                       # number of arm instructions executed (Count)
board.workload.inst.quiesce                         0                       # number of quiesce instructions executed (Count)
board.processor.cores00.core.idleCycles      71895772                       # Total number of cycles that the object has spent stopped (Unspecified)
board.processor.cores00.core.tickCycles      43672600                       # Number of cycles that the object actually ticked (Unspecified)
board.processor.cores01.core.idleCycles       8661395                       # Total number of cycles that the object has spent stopped (Unspecified)
board.processor.cores01.core.tickCycles       2118601                       # Number of cycles that the object actually ticked (Unspecified)
board.processor.cores02.core.idleCycles       8610261                       # Total number of cycles that the object has spent stopped (Unspecified)
board.processor.cores02.core.tickCycles       2161085                       # Number of cycles that the object actually ticked (Unspecified)
board.processor.cores03.core.idleCycles       8646634                       # Total number of cycles that the object has spent stopped (Unspecified)
board.processor.cores03.core.tickCycles       2117877                       # Number of cycles that the object actually ticked (Unspecified)
board.processor.cores04.core.idleCycles       8686343                       # Total number of cycles that the object has spent stopped (Unspecified)
board.processor.cores04.core.tickCycles       2072121                       # Number of cycles that the object actually ticked (Unspecified)
board.processor.cores05.core.idleCycles       8710366                       # Total number of cycles that the object has spent stopped (Unspecified)
board.processor.cores05.core.tickCycles       2042485                       # Number of cycles that the object actually ticked (Unspecified)
board.processor.cores06.core.idleCycles       8703442                       # Total number of cycles that the object has spent stopped (Unspecified)
board.processor.cores06.core.tickCycles       2043806                       # Number of cycles that the object actually ticked (Unspecified)
board.processor.cores07.core.idleCycles       8648088                       # Total number of cycles that the object has spent stopped (Unspecified)
board.processor.cores07.core.tickCycles       2093581                       # Number of cycles that the object actually ticked (Unspecified)
board.processor.cores08.core.idleCycles       8683127                       # Total number of cycles that the object has spent stopped (Unspecified)
board.processor.cores08.core.tickCycles       2053078                       # Number of cycles that the object actually ticked (Unspecified)
board.processor.cores09.core.idleCycles       8712422                       # Total number of cycles that the object has spent stopped (Unspecified)
board.processor.cores09.core.tickCycles       2018930                       # Number of cycles that the object actually ticked (Unspecified)
board.processor.cores10.core.idleCycles       8703089                       # Total number of cycles that the object has spent stopped (Unspecified)
board.processor.cores10.core.tickCycles       2023243                       # Number of cycles that the object actually ticked (Unspecified)
board.processor.cores11.core.idleCycles       8721729                       # Total number of cycles that the object has spent stopped (Unspecified)
board.processor.cores11.core.tickCycles       1998560                       # Number of cycles that the object actually ticked (Unspecified)
board.processor.cores12.core.idleCycles       8688644                       # Total number of cycles that the object has spent stopped (Unspecified)
board.processor.cores12.core.tickCycles       2026036                       # Number of cycles that the object actually ticked (Unspecified)
board.processor.cores13.core.idleCycles       8703633                       # Total number of cycles that the object has spent stopped (Unspecified)
board.processor.cores13.core.tickCycles       2005834                       # Number of cycles that the object actually ticked (Unspecified)
board.processor.cores14.core.idleCycles       8724979                       # Total number of cycles that the object has spent stopped (Unspecified)
board.processor.cores14.core.tickCycles       1979125                       # Number of cycles that the object actually ticked (Unspecified)
board.processor.cores15.core.idleCycles       8717547                       # Total number of cycles that the object has spent stopped (Unspecified)
board.processor.cores15.core.tickCycles       1981781                       # Number of cycles that the object actually ticked (Unspecified)

---------- End Simulation Statistics   ----------
