
---------- Begin Simulation Statistics ----------
simSeconds                                   0.000354                       # Number of seconds simulated (Second)
simTicks                                    354429549                       # Number of ticks simulated (Tick)
finalTick                                  1869236559                       # Number of ticks from beginning of simulation (restored from checkpoints and never reset) (Tick)
simFreq                                  1000000000000                       # The number of ticks per simulated second ((Tick/Second))
hostSeconds                                     15.04                       # Real time elapsed on the host (Second)
hostTickRate                                 23559396                       # The number of ticks simulated per host second (ticks/s) ((Tick/Second))
hostMemory                                    5021712                       # Number of bytes of host memory used (Byte)
simInsts                                      2012547                       # Number of instructions simulated (Count)
simOps                                        2012804                       # Number of ops (including micro ops) simulated (Count)
hostInstRate                                   133775                       # Simulator instruction rate (inst/s) ((Count/Second))
hostOpRate                                     133792                       # Simulator op (including micro ops) rate (op/s) ((Count/Second))
board.cache_hierarchy.ruby_system.delayHistogram::bucket_size          512                       # delay histogram for all message (Unspecified)
board.cache_hierarchy.ruby_system.delayHistogram::max_bucket         5119                       # delay histogram for all message (Unspecified)
board.cache_hierarchy.ruby_system.delayHistogram::samples       688903                       # delay histogram for all message (Unspecified)
board.cache_hierarchy.ruby_system.delayHistogram::mean    15.409310                       # delay histogram for all message (Unspecified)
board.cache_hierarchy.ruby_system.delayHistogram::stdev    40.494059                       # delay histogram for all message (Unspecified)
board.cache_hierarchy.ruby_system.delayHistogram |      688892    100.00%    100.00% |           2      0.00%    100.00% |           2      0.00%    100.00% |           2      0.00%    100.00% |           2      0.00%    100.00% |           2      0.00%    100.00% |           1      0.00%    100.00% |           0      0.00%    100.00% |           0      0.00%    100.00% |           0      0.00%    100.00% # delay histogram for all message (Unspecified)
board.cache_hierarchy.ruby_system.delayHistogram::total       688903                       # delay histogram for all message (Unspecified)
board.cache_hierarchy.ruby_system.m_outstandReqHistSeqr::bucket_size            1                       (Unspecified)
board.cache_hierarchy.ruby_system.m_outstandReqHistSeqr::max_bucket            9                       (Unspecified)
board.cache_hierarchy.ruby_system.m_outstandReqHistSeqr::samples      3599519                       (Unspecified)
board.cache_hierarchy.ruby_system.m_outstandReqHistSeqr::mean            1                       (Unspecified)
board.cache_hierarchy.ruby_system.m_outstandReqHistSeqr::gmean            1                       (Unspecified)
board.cache_hierarchy.ruby_system.m_outstandReqHistSeqr |           0      0.00%      0.00% |     3599519    100.00%    100.00% |           0      0.00%    100.00% |           0      0.00%    100.00% |           0      0.00%    100.00% |           0      0.00%    100.00% |           0      0.00%    100.00% |           0      0.00%    100.00% |           0      0.00%    100.00% |           0      0.00%    100.00% (Unspecified)
board.cache_hierarchy.ruby_system.m_outstandReqHistSeqr::total      3599519                       (Unspecified)
board.cache_hierarchy.ruby_system.m_latencyHistSeqr::bucket_size          128                       (Unspecified)
board.cache_hierarchy.ruby_system.m_latencyHistSeqr::max_bucket         1279                       (Unspecified)
board.cache_hierarchy.ruby_system.m_latencyHistSeqr::samples      3599504                       (Unspecified)
board.cache_hierarchy.ruby_system.m_latencyHistSeqr::mean     3.191855                       (Unspecified)
board.cache_hierarchy.ruby_system.m_latencyHistSeqr::gmean     1.162289                       (Unspecified)
board.cache_hierarchy.ruby_system.m_latencyHistSeqr::stdev    12.939067                       (Unspecified)
board.cache_hierarchy.ruby_system.m_latencyHistSeqr |     3596586     99.92%     99.92% |        2563      0.07%     99.99% |         128      0.00%     99.99% |         140      0.00%    100.00% |          43      0.00%    100.00% |          14      0.00%    100.00% |          10      0.00%    100.00% |          19      0.00%    100.00% |           0      0.00%    100.00% |           1      0.00%    100.00% (Unspecified)
board.cache_hierarchy.ruby_system.m_latencyHistSeqr::total      3599504                       (Unspecified)
board.cache_hierarchy.ruby_system.m_hitLatencyHistSeqr::bucket_size            1                       (Unspecified)
board.cache_hierarchy.ruby_system.m_hitLatencyHistSeqr::max_bucket            9                       (Unspecified)
board.cache_hierarchy.ruby_system.m_hitLatencyHistSeqr::samples      3462056                       (Unspecified)
board.cache_hierarchy.ruby_system.m_hitLatencyHistSeqr::mean            1                       (Unspecified)
board.cache_hierarchy.ruby_system.m_hitLatencyHistSeqr::gmean            1                       (Unspecified)
board.cache_hierarchy.ruby_system.m_hitLatencyHistSeqr |           0      0.00%      0.00% |     3462056    100.00%    100.00% |           0      0.00%    100.00% |           0      0.00%    100.00% |           0      0.00%    100.00% |           0      0.00%    100.00% |           0      0.00%    100.00% |           0      0.00%    100.00% |           0      0.00%    100.00% |           0      0.00%    100.00% (Unspecified)
board.cache_hierarchy.ruby_system.m_hitLatencyHistSeqr::total      3462056                       (Unspecified)
board.cache_hierarchy.ruby_system.m_missLatencyHistSeqr::bucket_size          128                       (Unspecified)
board.cache_hierarchy.ruby_system.m_missLatencyHistSeqr::max_bucket         1279                       (Unspecified)
board.cache_hierarchy.ruby_system.m_missLatencyHistSeqr::samples       137448                       (Unspecified)
board.cache_hierarchy.ruby_system.m_missLatencyHistSeqr::mean    58.400544                       (Unspecified)
board.cache_hierarchy.ruby_system.m_missLatencyHistSeqr::gmean    51.340185                       (Unspecified)
board.cache_hierarchy.ruby_system.m_missLatencyHistSeqr::stdev    34.862570                       (Unspecified)
board.cache_hierarchy.ruby_system.m_missLatencyHistSeqr |      134530     97.88%     97.88% |        2563      1.86%     99.74% |         128      0.09%     99.83% |         140      0.10%     99.94% |          43      0.03%     99.97% |          14      0.01%     99.98% |          10      0.01%     99.99% |          19      0.01%    100.00% |           0      0.00%    100.00% |           1      0.00%    100.00% (Unspecified)
board.cache_hierarchy.ruby_system.m_missLatencyHistSeqr::total       137448                       (Unspecified)
board.cache_hierarchy.ruby_system.delayVCHist.vnet_0::bucket_size          512                       # delay histogram for vnet_0 (Unspecified)
board.cache_hierarchy.ruby_system.delayVCHist.vnet_0::max_bucket         5119                       # delay histogram for vnet_0 (Unspecified)
board.cache_hierarchy.ruby_system.delayVCHist.vnet_0::samples       243246                       # delay histogram for vnet_0 (Unspecified)
board.cache_hierarchy.ruby_system.delayVCHist.vnet_0::mean    43.216694                       # delay histogram for vnet_0 (Unspecified)
board.cache_hierarchy.ruby_system.delayVCHist.vnet_0::stdev    58.709357                       # delay histogram for vnet_0 (Unspecified)
board.cache_hierarchy.ruby_system.delayVCHist.vnet_0 |      243235    100.00%    100.00% |           2      0.00%    100.00% |           2      0.00%    100.00% |           2      0.00%    100.00% |           2      0.00%    100.00% |           2      0.00%    100.00% |           1      0.00%    100.00% |           0      0.00%    100.00% |           0      0.00%    100.00% |           0      0.00%    100.00% # delay histogram for vnet_0 (Unspecified)
board.cache_hierarchy.ruby_system.delayVCHist.vnet_0::total       243246                       # delay histogram for vnet_0 (Unspecified)
board.cache_hierarchy.ruby_system.delayVCHist.vnet_1::bucket_size            8                       # delay histogram for vnet_1 (Unspecified)
board.cache_hierarchy.ruby_system.delayVCHist.vnet_1::max_bucket           79                       # delay histogram for vnet_1 (Unspecified)
board.cache_hierarchy.ruby_system.delayVCHist.vnet_1::samples       279397                       # delay histogram for vnet_1 (Unspecified)
board.cache_hierarchy.ruby_system.delayVCHist.vnet_1::mean     0.369374                       # delay histogram for vnet_1 (Unspecified)
board.cache_hierarchy.ruby_system.delayVCHist.vnet_1::stdev     1.282058                       # delay histogram for vnet_1 (Unspecified)
board.cache_hierarchy.ruby_system.delayVCHist.vnet_1 |      277852     99.45%     99.45% |        1338      0.48%     99.93% |         170      0.06%     99.99% |          29      0.01%    100.00% |           4      0.00%    100.00% |           2      0.00%    100.00% |           1      0.00%    100.00% |           1      0.00%    100.00% |           0      0.00%    100.00% |           0      0.00%    100.00% # delay histogram for vnet_1 (Unspecified)
board.cache_hierarchy.ruby_system.delayVCHist.vnet_1::total       279397                       # delay histogram for vnet_1 (Unspecified)
board.cache_hierarchy.ruby_system.delayVCHist.vnet_2::bucket_size            1                       # delay histogram for vnet_2 (Unspecified)
board.cache_hierarchy.ruby_system.delayVCHist.vnet_2::max_bucket            9                       # delay histogram for vnet_2 (Unspecified)
board.cache_hierarchy.ruby_system.delayVCHist.vnet_2::samples       166260                       # delay histogram for vnet_2 (Unspecified)
board.cache_hierarchy.ruby_system.delayVCHist.vnet_2::mean     0.000180                       # delay histogram for vnet_2 (Unspecified)
board.cache_hierarchy.ruby_system.delayVCHist.vnet_2::stdev     0.018996                       # delay histogram for vnet_2 (Unspecified)
board.cache_hierarchy.ruby_system.delayVCHist.vnet_2 |      166245     99.99%     99.99% |           0      0.00%     99.99% |          15      0.01%    100.00% |           0      0.00%    100.00% |           0      0.00%    100.00% |           0      0.00%    100.00% |           0      0.00%    100.00% |           0      0.00%    100.00% |           0      0.00%    100.00% |           0      0.00%    100.00% # delay histogram for vnet_2 (Unspecified)
board.cache_hierarchy.ruby_system.delayVCHist.vnet_2::total       166260                       # delay histogram for vnet_2 (Unspecified)
board.cache_hierarchy.ruby_system.Directory_Controller.Fetch         3184      0.00%      0.00% (Unspecified)
board.cache_hierarchy.ruby_system.Directory_Controller.Data         2241      0.00%      0.00% (Unspecified)
board.cache_hierarchy.ruby_system.Directory_Controller.Memory_Data         3184      0.00%      0.00% (Unspecified)
board.cache_hierarchy.ruby_system.Directory_Controller.Memory_Ack         2241      0.00%      0.00% (Unspecified)
board.cache_hierarchy.ruby_system.Directory_Controller.CleanReplacement          943      0.00%      0.00% (Unspecified)
board.cache_hierarchy.ruby_system.Directory_Controller.I.Fetch         3184      0.00%      0.00% (Unspecified)
board.cache_hierarchy.ruby_system.Directory_Controller.M.Data         2241      0.00%      0.00% (Unspecified)
board.cache_hierarchy.ruby_system.Directory_Controller.M.CleanReplacement          943      0.00%      0.00% (Unspecified)
board.cache_hierarchy.ruby_system.Directory_Controller.IM.Memory_Data         3184      0.00%      0.00% (Unspecified)
board.cache_hierarchy.ruby_system.Directory_Controller.MI.Memory_Ack         2241      0.00%      0.00% (Unspecified)
board.cache_hierarchy.ruby_system.L1Cache_Controller.Load |       51673      6.25%      6.25% |       55706      6.73%     12.98% |       55775      6.74%     19.72% |       55264      6.68%     26.40% |       54702      6.61%     33.01% |       54392      6.57%     39.59% |       54440      6.58%     46.17% |       53108      6.42%     52.59% |       51096      6.18%     58.76% |       50545      6.11%     64.87% |       50228      6.07%     70.94% |       49498      5.98%     76.93% |       48922      5.91%     82.84% |       48131      5.82%     88.66% |       47332      5.72%     94.38% |       46512      5.62%    100.00% (Unspecified)
board.cache_hierarchy.ruby_system.L1Cache_Controller.Load::total       827324                       (Unspecified)
board.cache_hierarchy.ruby_system.L1Cache_Controller.Ifetch |      164833      6.33%      6.33% |      181479      6.97%     13.30% |      181803      6.98%     20.28% |      179386      6.89%     27.17% |      176740      6.79%     33.95% |      175282      6.73%     40.68% |      175507      6.74%     47.42% |      169231      6.50%     53.92% |      159742      6.13%     60.05% |      157139      6.03%     66.09% |      155648      5.98%     72.06% |      152211      5.84%     77.91% |      149499      5.74%     83.65% |      145763      5.60%     89.24% |      141994      5.45%     94.70% |      138149      5.30%    100.00% (Unspecified)
board.cache_hierarchy.ruby_system.L1Cache_Controller.Ifetch::total      2604406                       (Unspecified)
board.cache_hierarchy.ruby_system.L1Cache_Controller.Store |       13496      8.05%      8.05% |       11422      6.81%     14.86% |       11441      6.82%     21.68% |       11295      6.74%     28.42% |       11135      6.64%     35.06% |       11047      6.59%     41.64% |       11060      6.60%     48.24% |       10680      6.37%     54.61% |       10107      6.03%     60.63% |        9947      5.93%     66.56% |        9857      5.88%     72.44% |        9648      5.75%     78.20% |        9484      5.66%     83.85% |        9257      5.52%     89.37% |        9029      5.38%     94.75% |        8796      5.25%    100.00% (Unspecified)
board.cache_hierarchy.ruby_system.L1Cache_Controller.Store::total       167701                       (Unspecified)
board.cache_hierarchy.ruby_system.L1Cache_Controller.Inv |        6167      6.15%      6.15% |        6101      6.08%     12.23% |        6207      6.19%     18.41% |        6145      6.12%     24.54% |        6375      6.35%     30.89% |        6575      6.55%     37.44% |        6818      6.80%     44.24% |        6990      6.97%     51.21% |        5698      5.68%     56.88% |        6134      6.11%     63.00% |        5757      5.74%     68.74% |        6028      6.01%     74.74% |        6069      6.05%     80.79% |        6237      6.22%     87.01% |        6302      6.28%     93.29% |        6733      6.71%    100.00% (Unspecified)
board.cache_hierarchy.ruby_system.L1Cache_Controller.Inv::total       100336                       (Unspecified)
board.cache_hierarchy.ruby_system.L1Cache_Controller.L1_Replacement |         819    100.00%    100.00% |           0      0.00%    100.00% |           0      0.00%    100.00% |           0      0.00%    100.00% |           0      0.00%    100.00% |           0      0.00%    100.00% |           0      0.00%    100.00% |           0      0.00%    100.00% |           0      0.00%    100.00% |           0      0.00%    100.00% |           0      0.00%    100.00% |           0      0.00%    100.00% |           0      0.00%    100.00% |           0      0.00%    100.00% |           0      0.00%    100.00% |           0      0.00%    100.00% (Unspecified)
board.cache_hierarchy.ruby_system.L1Cache_Controller.L1_Replacement::total          819                       (Unspecified)
board.cache_hierarchy.ruby_system.L1Cache_Controller.Fwd_GETX |        2496      8.02%      8.02% |        2061      6.62%     14.63% |        2024      6.50%     21.13% |        2058      6.61%     27.74% |        1859      5.97%     33.71% |        1794      5.76%     39.47% |        1552      4.98%     44.46% |        1330      4.27%     48.73% |        2165      6.95%     55.68% |        1779      5.71%     61.39% |        2257      7.25%     68.64% |        2155      6.92%     75.56% |        2193      7.04%     82.60% |        2039      6.55%     89.15% |        1977      6.35%     95.50% |        1402      4.50%    100.00% (Unspecified)
board.cache_hierarchy.ruby_system.L1Cache_Controller.Fwd_GETX::total        31141                       (Unspecified)
board.cache_hierarchy.ruby_system.L1Cache_Controller.Fwd_GETS |        1914      5.50%      5.50% |        2050      5.89%     11.40% |        2079      5.98%     17.37% |        2035      5.85%     23.22% |        2243      6.45%     29.67% |        2307      6.63%     36.31% |        2552      7.34%     43.64% |        2770      7.96%     51.61% |        1924      5.53%     57.14% |        2323      6.68%     63.82% |        1845      5.30%     69.12% |        1947      5.60%     74.72% |        1909      5.49%     80.21% |        2062      5.93%     86.13% |        2125      6.11%     92.24% |        2698      7.76%    100.00% (Unspecified)
board.cache_hierarchy.ruby_system.L1Cache_Controller.Fwd_GETS::total        34783                       (Unspecified)
board.cache_hierarchy.ruby_system.L1Cache_Controller.Data |        2283      6.83%      6.83% |        2242      6.70%     13.53% |        2067      6.18%     19.71% |        2178      6.51%     26.22% |        2232      6.67%     32.89% |        2122      6.34%     39.23% |        2120      6.34%     45.57% |        2121      6.34%     51.91% |        2097      6.27%     58.18% |        2257      6.75%     64.93% |        2224      6.65%     71.58% |        2122      6.34%     77.92% |        1911      5.71%     83.64% |        1977      5.91%     89.55% |        1809      5.41%     94.95% |        1688      5.05%    100.00% (Unspecified)
board.cache_hierarchy.ruby_system.L1Cache_Controller.Data::total        33450                       (Unspecified)
board.cache_hierarchy.ruby_system.L1Cache_Controller.Data_Exclusive |         305      7.40%      7.40% |         271      6.57%     13.97% |         260      6.31%     20.28% |         260      6.31%     26.58% |         259      6.28%     32.86% |         261      6.33%     39.19% |         265      6.43%     45.62% |         261      6.33%     51.95% |         262      6.35%     58.31% |         260      6.31%     64.61% |         262      6.35%     70.97% |         261      6.33%     77.30% |         260      6.31%     83.60% |         260      6.31%     89.91% |         260      6.31%     96.22% |         156      3.78%    100.00% (Unspecified)
board.cache_hierarchy.ruby_system.L1Cache_Controller.Data_Exclusive::total         4123                       (Unspecified)
board.cache_hierarchy.ruby_system.L1Cache_Controller.DataS_fromL1 |        2335      6.71%      6.71% |        2297      6.60%     13.32% |        2151      6.18%     19.50% |        2209      6.35%     25.85% |        2289      6.58%     32.43% |        2153      6.19%     38.62% |        2154      6.19%     44.81% |        2198      6.32%     51.13% |        2298      6.61%     57.74% |        2391      6.87%     64.61% |        2482      7.14%     71.75% |        2232      6.42%     78.17% |        1943      5.59%     83.75% |        2019      5.80%     89.56% |        1836      5.28%     94.84% |        1796      5.16%    100.00% (Unspecified)
board.cache_hierarchy.ruby_system.L1Cache_Controller.DataS_fromL1::total        34783                       (Unspecified)
board.cache_hierarchy.ruby_system.L1Cache_Controller.Data_all_Acks |        4133      6.46%      6.46% |        3681      5.75%     12.21% |        4067      6.36%     18.57% |        3885      6.07%     24.65% |        3781      5.91%     30.56% |        4051      6.33%     36.89% |        4003      6.26%     43.15% |        3931      6.14%     49.29% |        3542      5.54%     54.83% |        3333      5.21%     60.04% |        3368      5.26%     65.30% |        3892      6.08%     71.39% |        4467      6.98%     78.37% |        4329      6.77%     85.14% |        4688      7.33%     92.46% |        4821      7.54%    100.00% (Unspecified)
board.cache_hierarchy.ruby_system.L1Cache_Controller.Data_all_Acks::total        63972                       (Unspecified)
board.cache_hierarchy.ruby_system.L1Cache_Controller.Ack |        4418      6.85%      6.85% |        4330      6.72%     13.57% |        4018      6.23%     19.81% |        3673      5.70%     25.51% |        4277      6.64%     32.14% |        4050      6.28%     38.43% |        3772      5.85%     44.28% |        3877      6.02%     50.29% |        4862      7.54%     57.84% |        5180      8.04%     65.87% |        5418      8.41%     74.28% |        4329      6.72%     81.00% |        3329      5.17%     86.16% |        3169      4.92%     91.08% |        3147      4.88%     95.96% |        2602      4.04%    100.00% (Unspecified)
board.cache_hierarchy.ruby_system.L1Cache_Controller.Ack::total        64451                       (Unspecified)
board.cache_hierarchy.ruby_system.L1Cache_Controller.Ack_all |        2363      6.84%      6.84% |        2296      6.64%     13.48% |        2134      6.17%     19.65% |        2202      6.37%     26.02% |        2271      6.57%     32.59% |        2148      6.21%     38.80% |        2146      6.21%     45.01% |        2168      6.27%     51.28% |        2316      6.70%     57.98% |        2385      6.90%     64.88% |        2477      7.17%     72.05% |        2214      6.40%     78.45% |        1934      5.59%     84.05% |        1997      5.78%     89.83% |        1825      5.28%     95.11% |        1692      4.89%    100.00% (Unspecified)
board.cache_hierarchy.ruby_system.L1Cache_Controller.Ack_all::total        34568                       (Unspecified)
board.cache_hierarchy.ruby_system.L1Cache_Controller.WB_Ack |         462    100.00%    100.00% |           0      0.00%    100.00% |           0      0.00%    100.00% |           0      0.00%    100.00% |           0      0.00%    100.00% |           0      0.00%    100.00% |           0      0.00%    100.00% |           0      0.00%    100.00% |           0      0.00%    100.00% |           0      0.00%    100.00% |           0      0.00%    100.00% |           0      0.00%    100.00% |           0      0.00%    100.00% |           0      0.00%    100.00% |           0      0.00%    100.00% |           0      0.00%    100.00% (Unspecified)
board.cache_hierarchy.ruby_system.L1Cache_Controller.WB_Ack::total          462                       (Unspecified)
board.cache_hierarchy.ruby_system.L1Cache_Controller.Load_Linked |          73    100.00%    100.00% |           0      0.00%    100.00% |           0      0.00%    100.00% |           0      0.00%    100.00% |           0      0.00%    100.00% |           0      0.00%    100.00% |           0      0.00%    100.00% |           0      0.00%    100.00% |           0      0.00%    100.00% |           0      0.00%    100.00% |           0      0.00%    100.00% |           0      0.00%    100.00% |           0      0.00%    100.00% |           0      0.00%    100.00% |           0      0.00%    100.00% |           0      0.00%    100.00% (Unspecified)
board.cache_hierarchy.ruby_system.L1Cache_Controller.Load_Linked::total           73                       (Unspecified)
board.cache_hierarchy.ruby_system.L1Cache_Controller.LLSC_Data_all_Acks |           2    100.00%    100.00% |           0      0.00%    100.00% |           0      0.00%    100.00% |           0      0.00%    100.00% |           0      0.00%    100.00% |           0      0.00%    100.00% |           0      0.00%    100.00% |           0      0.00%    100.00% |           0      0.00%    100.00% |           0      0.00%    100.00% |           0      0.00%    100.00% |           0      0.00%    100.00% |           0      0.00%    100.00% |           0      0.00%    100.00% |           0      0.00%    100.00% |           0      0.00%    100.00% (Unspecified)
board.cache_hierarchy.ruby_system.L1Cache_Controller.LLSC_Data_all_Acks::total            2                       (Unspecified)
board.cache_hierarchy.ruby_system.L1Cache_Controller.LLSC_Timeout |          73    100.00%    100.00% |           0      0.00%    100.00% |           0      0.00%    100.00% |           0      0.00%    100.00% |           0      0.00%    100.00% |           0      0.00%    100.00% |           0      0.00%    100.00% |           0      0.00%    100.00% |           0      0.00%    100.00% |           0      0.00%    100.00% |           0      0.00%    100.00% |           0      0.00%    100.00% |           0      0.00%    100.00% |           0      0.00%    100.00% |           0      0.00%    100.00% |           0      0.00%    100.00% (Unspecified)
board.cache_hierarchy.ruby_system.L1Cache_Controller.LLSC_Timeout::total           73                       (Unspecified)
board.cache_hierarchy.ruby_system.L1Cache_Controller.NP.Load |         300      6.39%      6.39% |         293      6.24%     12.63% |         293      6.24%     18.86% |         293      6.24%     25.10% |         293      6.24%     31.34% |         293      6.24%     37.58% |         293      6.24%     43.82% |         293      6.24%     50.05% |         294      6.26%     56.31% |         293      6.24%     62.55% |         293      6.24%     68.79% |         293      6.24%     75.03% |         293      6.24%     81.26% |         293      6.24%     87.50% |         293      6.24%     93.74% |         294      6.26%    100.00% (Unspecified)
board.cache_hierarchy.ruby_system.L1Cache_Controller.NP.Load::total         4697                       (Unspecified)
board.cache_hierarchy.ruby_system.L1Cache_Controller.NP.Ifetch |         205     12.07%     12.07% |          99      5.83%     17.89% |          99      5.83%     23.72% |          99      5.83%     29.55% |          99      5.83%     35.37% |          99      5.83%     41.20% |          99      5.83%     47.03% |          99      5.83%     52.85% |         104      6.12%     58.98% |          99      5.83%     64.80% |          99      5.83%     70.63% |          99      5.83%     76.46% |          99      5.83%     82.28% |          99      5.83%     88.11% |          99      5.83%     93.94% |         103      6.06%    100.00% (Unspecified)
board.cache_hierarchy.ruby_system.L1Cache_Controller.NP.Ifetch::total         1699                       (Unspecified)
board.cache_hierarchy.ruby_system.L1Cache_Controller.NP.Store |         401     48.78%     48.78% |          28      3.41%     52.19% |          28      3.41%     55.60% |          28      3.41%     59.00% |          28      3.41%     62.41% |          28      3.41%     65.82% |          28      3.41%     69.22% |          28      3.41%     72.63% |          29      3.53%     76.16% |          28      3.41%     79.56% |          28      3.41%     82.97% |          28      3.41%     86.37% |          28      3.41%     89.78% |          28      3.41%     93.19% |          28      3.41%     96.59% |          28      3.41%    100.00% (Unspecified)
board.cache_hierarchy.ruby_system.L1Cache_Controller.NP.Store::total          822                       (Unspecified)
board.cache_hierarchy.ruby_system.L1Cache_Controller.NP.Inv |          53    100.00%    100.00% |           0      0.00%    100.00% |           0      0.00%    100.00% |           0      0.00%    100.00% |           0      0.00%    100.00% |           0      0.00%    100.00% |           0      0.00%    100.00% |           0      0.00%    100.00% |           0      0.00%    100.00% |           0      0.00%    100.00% |           0      0.00%    100.00% |           0      0.00%    100.00% |           0      0.00%    100.00% |           0      0.00%    100.00% |           0      0.00%    100.00% |           0      0.00%    100.00% (Unspecified)
board.cache_hierarchy.ruby_system.L1Cache_Controller.NP.Inv::total           53                       (Unspecified)
board.cache_hierarchy.ruby_system.L1Cache_Controller.NP.Load_Linked |           2    100.00%    100.00% |           0      0.00%    100.00% |           0      0.00%    100.00% |           0      0.00%    100.00% |           0      0.00%    100.00% |           0      0.00%    100.00% |           0      0.00%    100.00% |           0      0.00%    100.00% |           0      0.00%    100.00% |           0      0.00%    100.00% |           0      0.00%    100.00% |           0      0.00%    100.00% |           0      0.00%    100.00% |           0      0.00%    100.00% |           0      0.00%    100.00% |           0      0.00%    100.00% (Unspecified)
board.cache_hierarchy.ruby_system.L1Cache_Controller.NP.Load_Linked::total            2                       (Unspecified)
board.cache_hierarchy.ruby_system.L1Cache_Controller.I.Load |        4079      6.32%      6.32% |        4019      6.23%     12.55% |        4088      6.34%     18.89% |        4040      6.26%     25.15% |        4075      6.32%     31.46% |        4088      6.34%     37.80% |        4043      6.27%     44.06% |        4034      6.25%     50.32% |        3900      6.04%     56.36% |        3844      5.96%     62.32% |        4064      6.30%     68.62% |        4074      6.31%     74.93% |        4079      6.32%     81.25% |        4080      6.32%     87.57% |        4084      6.33%     93.90% |        3934      6.10%    100.00% (Unspecified)
board.cache_hierarchy.ruby_system.L1Cache_Controller.I.Load::total        64525                       (Unspecified)
board.cache_hierarchy.ruby_system.L1Cache_Controller.I.Ifetch |          37     38.14%     38.14% |           4      4.12%     42.27% |           4      4.12%     46.39% |           4      4.12%     50.52% |           4      4.12%     54.64% |           4      4.12%     58.76% |           4      4.12%     62.89% |           4      4.12%     67.01% |           4      4.12%     71.13% |           4      4.12%     75.26% |           4      4.12%     79.38% |           4      4.12%     83.51% |           4      4.12%     87.63% |           4      4.12%     91.75% |           4      4.12%     95.88% |           4      4.12%    100.00% (Unspecified)
board.cache_hierarchy.ruby_system.L1Cache_Controller.I.Ifetch::total           97                       (Unspecified)
board.cache_hierarchy.ruby_system.L1Cache_Controller.I.Store |        4013      6.31%      6.31% |        4022      6.32%     12.63% |        4005      6.29%     18.92% |        4046      6.36%     25.28% |        4029      6.33%     31.61% |        4040      6.35%     37.95% |        4041      6.35%     44.30% |        4039      6.35%     50.65% |        3831      6.02%     56.67% |        3906      6.14%     62.81% |        3771      5.93%     68.73% |        3920      6.16%     74.89% |        3964      6.23%     81.12% |        3982      6.26%     87.38% |        3986      6.26%     93.64% |        4047      6.36%    100.00% (Unspecified)
board.cache_hierarchy.ruby_system.L1Cache_Controller.I.Store::total        63642                       (Unspecified)
board.cache_hierarchy.ruby_system.L1Cache_Controller.I.L1_Replacement |         217    100.00%    100.00% |           0      0.00%    100.00% |           0      0.00%    100.00% |           0      0.00%    100.00% |           0      0.00%    100.00% |           0      0.00%    100.00% |           0      0.00%    100.00% |           0      0.00%    100.00% |           0      0.00%    100.00% |           0      0.00%    100.00% |           0      0.00%    100.00% |           0      0.00%    100.00% |           0      0.00%    100.00% |           0      0.00%    100.00% |           0      0.00%    100.00% |           0      0.00%    100.00% (Unspecified)
board.cache_hierarchy.ruby_system.L1Cache_Controller.I.L1_Replacement::total          217                       (Unspecified)
board.cache_hierarchy.ruby_system.L1Cache_Controller.S.Load |        4517      5.44%      5.44% |        5697      6.86%     12.30% |        5655      6.81%     19.11% |        5623      6.77%     25.88% |        5515      6.64%     32.52% |        5460      6.57%     39.09% |        5513      6.64%     45.73% |        5329      6.42%     52.14% |        5160      6.21%     58.36% |        5153      6.20%     64.56% |        4889      5.89%     70.45% |        4774      5.75%     76.20% |        4686      5.64%     81.84% |        4573      5.51%     87.34% |        4455      5.36%     92.71% |        6056      7.29%    100.00% (Unspecified)
board.cache_hierarchy.ruby_system.L1Cache_Controller.S.Load::total        83055                       (Unspecified)
board.cache_hierarchy.ruby_system.L1Cache_Controller.S.Ifetch |      164591      6.32%      6.32% |      181376      6.97%     13.29% |      181700      6.98%     20.27% |      179283      6.89%     27.16% |      176637      6.79%     33.95% |      175179      6.73%     40.68% |      175404      6.74%     47.42% |      169128      6.50%     53.92% |      159634      6.13%     60.05% |      157036      6.03%     66.09% |      155545      5.98%     72.06% |      152108      5.84%     77.91% |      149396      5.74%     83.65% |      145660      5.60%     89.24% |      141891      5.45%     94.70% |      138042      5.30%    100.00% (Unspecified)
board.cache_hierarchy.ruby_system.L1Cache_Controller.S.Ifetch::total      2602610                       (Unspecified)
board.cache_hierarchy.ruby_system.L1Cache_Controller.S.Store |         101      5.14%      5.14% |          80      4.07%      9.22% |          95      4.84%     14.05% |          46      2.34%     16.40% |          72      3.67%     20.06% |          61      3.11%     23.17% |          60      3.05%     26.22% |          61      3.11%     29.33% |         256     13.03%     42.36% |         195      9.93%     52.29% |         330     16.80%     69.09% |         181      9.22%     78.31% |         137      6.98%     85.29% |         119      6.06%     91.34% |         115      5.86%     97.20% |          55      2.80%    100.00% (Unspecified)
board.cache_hierarchy.ruby_system.L1Cache_Controller.S.Store::total         1964                       (Unspecified)
board.cache_hierarchy.ruby_system.L1Cache_Controller.S.Inv |        4751      5.85%      5.85% |        4915      6.05%     11.90% |        4851      5.97%     17.87% |        4907      6.04%     23.91% |        5224      6.43%     30.34% |        5150      6.34%     36.68% |        5388      6.63%     43.31% |        5667      6.98%     50.29% |        4901      6.03%     56.32% |        5169      6.36%     62.68% |        4747      5.84%     68.53% |        4980      6.13%     74.66% |        4926      6.06%     80.72% |        5110      6.29%     87.01% |        5032      6.19%     93.21% |        5520      6.79%    100.00% (Unspecified)
board.cache_hierarchy.ruby_system.L1Cache_Controller.S.Inv::total        81238                       (Unspecified)
board.cache_hierarchy.ruby_system.L1Cache_Controller.S.L1_Replacement |         140    100.00%    100.00% |           0      0.00%    100.00% |           0      0.00%    100.00% |           0      0.00%    100.00% |           0      0.00%    100.00% |           0      0.00%    100.00% |           0      0.00%    100.00% |           0      0.00%    100.00% |           0      0.00%    100.00% |           0      0.00%    100.00% |           0      0.00%    100.00% |           0      0.00%    100.00% |           0      0.00%    100.00% |           0      0.00%    100.00% |           0      0.00%    100.00% |           0      0.00%    100.00% (Unspecified)
board.cache_hierarchy.ruby_system.L1Cache_Controller.S.L1_Replacement::total          140                       (Unspecified)
board.cache_hierarchy.ruby_system.L1Cache_Controller.E.Load |        5016      4.46%      4.46% |        4559      4.05%      8.51% |        3837      3.41%     11.93% |        4540      4.04%     15.96% |        8639      7.68%     23.65% |        4469      3.97%     27.62% |        6395      5.69%     33.31% |       10600      9.43%     42.73% |        3835      3.41%     46.14% |       10669      9.49%     55.63% |        6503      5.78%     61.41% |       10661      9.48%     70.90% |        6492      5.77%     76.67% |       10659      9.48%     86.15% |        6489      5.77%     91.92% |        9089      8.08%    100.00% (Unspecified)
board.cache_hierarchy.ruby_system.L1Cache_Controller.E.Load::total       112452                       (Unspecified)
board.cache_hierarchy.ruby_system.L1Cache_Controller.E.Store |          19     43.18%     43.18% |           2      4.55%     47.73% |           0      0.00%     47.73% |           2      4.55%     52.27% |           1      2.27%     54.55% |           2      4.55%     59.09% |           2      4.55%     63.64% |           2      4.55%     68.18% |           0      0.00%     68.18% |           2      4.55%     72.73% |           2      4.55%     77.27% |           2      4.55%     81.82% |           2      4.55%     86.36% |           2      4.55%     90.91% |           2      4.55%     95.45% |           2      4.55%    100.00% (Unspecified)
board.cache_hierarchy.ruby_system.L1Cache_Controller.E.Store::total           44                       (Unspecified)
board.cache_hierarchy.ruby_system.L1Cache_Controller.E.Inv |          72     13.36%     13.36% |           2      0.37%     13.73% |          14      2.60%     16.33% |           1      0.19%     16.51% |           0      0.00%     16.51% |         110     20.41%     36.92% |         156     28.94%     65.86% |         139     25.79%     91.65% |           2      0.37%     92.02% |           0      0.00%     92.02% |           4      0.74%     92.76% |           0      0.00%     92.76% |           5      0.93%     93.69% |          18      3.34%     97.03% |          14      2.60%     99.63% |           2      0.37%    100.00% (Unspecified)
board.cache_hierarchy.ruby_system.L1Cache_Controller.E.Inv::total          539                       (Unspecified)
board.cache_hierarchy.ruby_system.L1Cache_Controller.E.L1_Replacement |           6    100.00%    100.00% |           0      0.00%    100.00% |           0      0.00%    100.00% |           0      0.00%    100.00% |           0      0.00%    100.00% |           0      0.00%    100.00% |           0      0.00%    100.00% |           0      0.00%    100.00% |           0      0.00%    100.00% |           0      0.00%    100.00% |           0      0.00%    100.00% |           0      0.00%    100.00% |           0      0.00%    100.00% |           0      0.00%    100.00% |           0      0.00%    100.00% |           0      0.00%    100.00% (Unspecified)
board.cache_hierarchy.ruby_system.L1Cache_Controller.E.L1_Replacement::total            6                       (Unspecified)
board.cache_hierarchy.ruby_system.L1Cache_Controller.E.Fwd_GETS |           8     22.22%     22.22% |          10     27.78%     50.00% |           2      5.56%     55.56% |           1      2.78%     58.33% |           1      2.78%     61.11% |           1      2.78%     63.89% |           3      8.33%     72.22% |           1      2.78%     75.00% |           1      2.78%     77.78% |           1      2.78%     80.56% |           1      2.78%     83.33% |           1      2.78%     86.11% |           1      2.78%     88.89% |           1      2.78%     91.67% |           1      2.78%     94.44% |           2      5.56%    100.00% (Unspecified)
board.cache_hierarchy.ruby_system.L1Cache_Controller.E.Fwd_GETS::total           36                       (Unspecified)
board.cache_hierarchy.ruby_system.L1Cache_Controller.E.Load_Linked |           1    100.00%    100.00% |           0      0.00%    100.00% |           0      0.00%    100.00% |           0      0.00%    100.00% |           0      0.00%    100.00% |           0      0.00%    100.00% |           0      0.00%    100.00% |           0      0.00%    100.00% |           0      0.00%    100.00% |           0      0.00%    100.00% |           0      0.00%    100.00% |           0      0.00%    100.00% |           0      0.00%    100.00% |           0      0.00%    100.00% |           0      0.00%    100.00% |           0      0.00%    100.00% (Unspecified)
board.cache_hierarchy.ruby_system.L1Cache_Controller.E.Load_Linked::total            1                       (Unspecified)
board.cache_hierarchy.ruby_system.L1Cache_Controller.M.Load |       37761      6.71%      6.71% |       41138      7.31%     14.02% |       41902      7.45%     21.47% |       40768      7.25%     28.72% |       36180      6.43%     35.15% |       40082      7.12%     42.27% |       38196      6.79%     49.06% |       32852      5.84%     54.90% |       37907      6.74%     61.64% |       30586      5.44%     67.08% |       34479      6.13%     73.21% |       29696      5.28%     78.48% |       33372      5.93%     84.42% |       28526      5.07%     89.49% |       32011      5.69%     95.18% |       27139      4.82%    100.00% (Unspecified)
board.cache_hierarchy.ruby_system.L1Cache_Controller.M.Load::total       562595                       (Unspecified)
board.cache_hierarchy.ruby_system.L1Cache_Controller.M.Store |        8890      8.79%      8.79% |        7290      7.21%     15.99% |        7313      7.23%     23.22% |        7173      7.09%     30.32% |        7005      6.92%     37.24% |        6916      6.84%     44.08% |        6929      6.85%     50.93% |        6550      6.48%     57.40% |        5991      5.92%     63.32% |        5816      5.75%     69.07% |        5726      5.66%     74.73% |        5517      5.45%     80.19% |        5353      5.29%     85.48% |        5126      5.07%     90.55% |        4898      4.84%     95.39% |        4664      4.61%    100.00% (Unspecified)
board.cache_hierarchy.ruby_system.L1Cache_Controller.M.Store::total       101157                       (Unspecified)
board.cache_hierarchy.ruby_system.L1Cache_Controller.M.Inv |         102     22.27%     22.27% |          25      5.46%     27.73% |          20      4.37%     32.10% |          22      4.80%     36.90% |          22      4.80%     41.70% |          26      5.68%     47.38% |          25      5.46%     52.84% |          23      5.02%     57.86% |          22      4.80%     62.66% |          23      5.02%     67.69% |          25      5.46%     73.14% |          26      5.68%     78.82% |          25      5.46%     84.28% |          24      5.24%     89.52% |          23      5.02%     94.54% |          25      5.46%    100.00% (Unspecified)
board.cache_hierarchy.ruby_system.L1Cache_Controller.M.Inv::total          458                       (Unspecified)
board.cache_hierarchy.ruby_system.L1Cache_Controller.M.L1_Replacement |         456    100.00%    100.00% |           0      0.00%    100.00% |           0      0.00%    100.00% |           0      0.00%    100.00% |           0      0.00%    100.00% |           0      0.00%    100.00% |           0      0.00%    100.00% |           0      0.00%    100.00% |           0      0.00%    100.00% |           0      0.00%    100.00% |           0      0.00%    100.00% |           0      0.00%    100.00% |           0      0.00%    100.00% |           0      0.00%    100.00% |           0      0.00%    100.00% |           0      0.00%    100.00% (Unspecified)
board.cache_hierarchy.ruby_system.L1Cache_Controller.M.L1_Replacement::total          456                       (Unspecified)
board.cache_hierarchy.ruby_system.L1Cache_Controller.M.Fwd_GETX |        2496      8.02%      8.02% |        2061      6.62%     14.63% |        2024      6.50%     21.13% |        2058      6.61%     27.74% |        1859      5.97%     33.71% |        1794      5.76%     39.47% |        1552      4.98%     44.46% |        1330      4.27%     48.73% |        2165      6.95%     55.68% |        1779      5.71%     61.39% |        2257      7.25%     68.64% |        2155      6.92%     75.56% |        2193      7.04%     82.60% |        2039      6.55%     89.15% |        1977      6.35%     95.50% |        1402      4.50%    100.00% (Unspecified)
board.cache_hierarchy.ruby_system.L1Cache_Controller.M.Fwd_GETX::total        31141                       (Unspecified)
board.cache_hierarchy.ruby_system.L1Cache_Controller.M.Fwd_GETS |        1906      5.49%      5.49% |        2040      5.87%     11.36% |        2077      5.98%     17.33% |        2034      5.85%     23.19% |        2242      6.45%     29.64% |        2306      6.64%     36.28% |        2549      7.34%     43.61% |        2769      7.97%     51.58% |        1923      5.53%     57.12% |        2322      6.68%     63.80% |        1844      5.31%     69.11% |        1946      5.60%     74.71% |        1908      5.49%     80.20% |        2061      5.93%     86.13% |        2124      6.11%     92.24% |        2696      7.76%    100.00% (Unspecified)
board.cache_hierarchy.ruby_system.L1Cache_Controller.M.Fwd_GETS::total        34747                       (Unspecified)
board.cache_hierarchy.ruby_system.L1Cache_Controller.M.Load_Linked |          70    100.00%    100.00% |           0      0.00%    100.00% |           0      0.00%    100.00% |           0      0.00%    100.00% |           0      0.00%    100.00% |           0      0.00%    100.00% |           0      0.00%    100.00% |           0      0.00%    100.00% |           0      0.00%    100.00% |           0      0.00%    100.00% |           0      0.00%    100.00% |           0      0.00%    100.00% |           0      0.00%    100.00% |           0      0.00%    100.00% |           0      0.00%    100.00% |           0      0.00%    100.00% (Unspecified)
board.cache_hierarchy.ruby_system.L1Cache_Controller.M.Load_Linked::total           70                       (Unspecified)
board.cache_hierarchy.ruby_system.L1Cache_Controller.IS.Inv |        1168      6.79%      6.79% |        1133      6.59%     13.38% |        1294      7.52%     20.90% |        1193      6.94%     27.83% |        1096      6.37%     34.21% |        1254      7.29%     41.50% |        1215      7.06%     48.56% |        1147      6.67%     55.23% |         736      4.28%     59.50% |         875      5.09%     64.59% |         904      5.26%     69.85% |         933      5.42%     75.27% |         999      5.81%     81.08% |         986      5.73%     86.81% |        1134      6.59%     93.40% |        1135      6.60%    100.00% (Unspecified)
board.cache_hierarchy.ruby_system.L1Cache_Controller.IS.Inv::total        17202                       (Unspecified)
board.cache_hierarchy.ruby_system.L1Cache_Controller.IS.Data_Exclusive |         305      7.40%      7.40% |         271      6.57%     13.97% |         260      6.31%     20.28% |         260      6.31%     26.58% |         259      6.28%     32.86% |         261      6.33%     39.19% |         265      6.43%     45.62% |         261      6.33%     51.95% |         262      6.35%     58.31% |         260      6.31%     64.61% |         262      6.35%     70.97% |         261      6.33%     77.30% |         260      6.31%     83.60% |         260      6.31%     89.91% |         260      6.31%     96.22% |         156      3.78%    100.00% (Unspecified)
board.cache_hierarchy.ruby_system.L1Cache_Controller.IS.Data_Exclusive::total         4123                       (Unspecified)
board.cache_hierarchy.ruby_system.L1Cache_Controller.IS.DataS_fromL1 |        2335      6.71%      6.71% |        2297      6.60%     13.32% |        2151      6.18%     19.50% |        2209      6.35%     25.85% |        2289      6.58%     32.43% |        2153      6.19%     38.62% |        2154      6.19%     44.81% |        2198      6.32%     51.13% |        2298      6.61%     57.74% |        2391      6.87%     64.61% |        2482      7.14%     71.75% |        2232      6.42%     78.17% |        1943      5.59%     83.75% |        2019      5.80%     89.56% |        1836      5.28%     94.84% |        1796      5.16%    100.00% (Unspecified)
board.cache_hierarchy.ruby_system.L1Cache_Controller.IS.DataS_fromL1::total        34783                       (Unspecified)
board.cache_hierarchy.ruby_system.L1Cache_Controller.IS.Data_all_Acks |         813      5.45%      5.45% |         714      4.79%     10.24% |         779      5.22%     15.47% |         774      5.19%     20.66% |         827      5.55%     26.20% |         816      5.47%     31.68% |         805      5.40%     37.08% |         824      5.53%     42.60% |        1006      6.75%     49.35% |         714      4.79%     54.14% |         812      5.45%     59.58% |        1044      7.00%     66.59% |        1273      8.54%     75.12% |        1211      8.12%     83.25% |        1250      8.38%     91.63% |        1248      8.37%    100.00% (Unspecified)
board.cache_hierarchy.ruby_system.L1Cache_Controller.IS.Data_all_Acks::total        14910                       (Unspecified)
board.cache_hierarchy.ruby_system.L1Cache_Controller.IM.Data |        2283      6.83%      6.83% |        2242      6.70%     13.53% |        2067      6.18%     19.71% |        2178      6.51%     26.22% |        2232      6.67%     32.89% |        2122      6.34%     39.23% |        2120      6.34%     45.57% |        2121      6.34%     51.91% |        2097      6.27%     58.18% |        2257      6.75%     64.93% |        2224      6.65%     71.58% |        2122      6.34%     77.92% |        1911      5.71%     83.64% |        1977      5.91%     89.55% |        1809      5.41%     94.95% |        1688      5.05%    100.00% (Unspecified)
board.cache_hierarchy.ruby_system.L1Cache_Controller.IM.Data::total        33450                       (Unspecified)
board.cache_hierarchy.ruby_system.L1Cache_Controller.IM.Data_all_Acks |        2152      6.75%      6.75% |        1834      5.76%     12.51% |        1994      6.26%     18.77% |        1918      6.02%     24.79% |        1858      5.83%     30.62% |        1981      6.22%     36.84% |        1983      6.22%     43.06% |        1960      6.15%     49.22% |        1800      5.65%     54.87% |        1744      5.47%     60.34% |        1652      5.19%     65.52% |        1915      6.01%     71.53% |        2195      6.89%     78.42% |        2132      6.69%     85.12% |        2304      7.23%     92.35% |        2438      7.65%    100.00% (Unspecified)
board.cache_hierarchy.ruby_system.L1Cache_Controller.IM.Data_all_Acks::total        31860                       (Unspecified)
board.cache_hierarchy.ruby_system.L1Cache_Controller.IM.LLSC_Data_all_Acks |           2    100.00%    100.00% |           0      0.00%    100.00% |           0      0.00%    100.00% |           0      0.00%    100.00% |           0      0.00%    100.00% |           0      0.00%    100.00% |           0      0.00%    100.00% |           0      0.00%    100.00% |           0      0.00%    100.00% |           0      0.00%    100.00% |           0      0.00%    100.00% |           0      0.00%    100.00% |           0      0.00%    100.00% |           0      0.00%    100.00% |           0      0.00%    100.00% |           0      0.00%    100.00% (Unspecified)
board.cache_hierarchy.ruby_system.L1Cache_Controller.IM.LLSC_Data_all_Acks::total            2                       (Unspecified)
board.cache_hierarchy.ruby_system.L1Cache_Controller.SM.Inv |          21      2.48%      2.48% |          26      3.07%      5.56% |          28      3.31%      8.87% |          22      2.60%     11.47% |          33      3.90%     15.37% |          35      4.14%     19.50% |          34      4.02%     23.52% |          14      1.65%     25.18% |          37      4.37%     29.55% |          67      7.92%     37.47% |          77      9.10%     46.57% |          89     10.52%     57.09% |         114     13.48%     70.57% |          99     11.70%     82.27% |          99     11.70%     93.97% |          51      6.03%    100.00% (Unspecified)
board.cache_hierarchy.ruby_system.L1Cache_Controller.SM.Inv::total          846                       (Unspecified)
board.cache_hierarchy.ruby_system.L1Cache_Controller.SM.Ack |        4418      6.85%      6.85% |        4330      6.72%     13.57% |        4018      6.23%     19.81% |        3673      5.70%     25.51% |        4277      6.64%     32.14% |        4050      6.28%     38.43% |        3772      5.85%     44.28% |        3877      6.02%     50.29% |        4862      7.54%     57.84% |        5180      8.04%     65.87% |        5418      8.41%     74.28% |        4329      6.72%     81.00% |        3329      5.17%     86.16% |        3169      4.92%     91.08% |        3147      4.88%     95.96% |        2602      4.04%    100.00% (Unspecified)
board.cache_hierarchy.ruby_system.L1Cache_Controller.SM.Ack::total        64451                       (Unspecified)
board.cache_hierarchy.ruby_system.L1Cache_Controller.SM.Ack_all |        2363      6.84%      6.84% |        2296      6.64%     13.48% |        2134      6.17%     19.65% |        2202      6.37%     26.02% |        2271      6.57%     32.59% |        2148      6.21%     38.80% |        2146      6.21%     45.01% |        2168      6.27%     51.28% |        2316      6.70%     57.98% |        2385      6.90%     64.88% |        2477      7.17%     72.05% |        2214      6.40%     78.45% |        1934      5.59%     84.05% |        1997      5.78%     89.83% |        1825      5.28%     95.11% |        1692      4.89%    100.00% (Unspecified)
board.cache_hierarchy.ruby_system.L1Cache_Controller.SM.Ack_all::total        34568                       (Unspecified)
board.cache_hierarchy.ruby_system.L1Cache_Controller.IS_I.Data_all_Acks |        1168      6.79%      6.79% |        1133      6.59%     13.38% |        1294      7.52%     20.90% |        1193      6.94%     27.83% |        1096      6.37%     34.21% |        1254      7.29%     41.50% |        1215      7.06%     48.56% |        1147      6.67%     55.23% |         736      4.28%     59.50% |         875      5.09%     64.59% |         904      5.26%     69.85% |         933      5.42%     75.27% |         999      5.81%     81.08% |         986      5.73%     86.81% |        1134      6.59%     93.40% |        1135      6.60%    100.00% (Unspecified)
board.cache_hierarchy.ruby_system.L1Cache_Controller.IS_I.Data_all_Acks::total        17202                       (Unspecified)
board.cache_hierarchy.ruby_system.L1Cache_Controller.M_I.WB_Ack |         462    100.00%    100.00% |           0      0.00%    100.00% |           0      0.00%    100.00% |           0      0.00%    100.00% |           0      0.00%    100.00% |           0      0.00%    100.00% |           0      0.00%    100.00% |           0      0.00%    100.00% |           0      0.00%    100.00% |           0      0.00%    100.00% |           0      0.00%    100.00% |           0      0.00%    100.00% |           0      0.00%    100.00% |           0      0.00%    100.00% |           0      0.00%    100.00% |           0      0.00%    100.00% (Unspecified)
board.cache_hierarchy.ruby_system.L1Cache_Controller.M_I.WB_Ack::total          462                       (Unspecified)
board.cache_hierarchy.ruby_system.L1Cache_Controller.LLSC_E.Store |           2    100.00%    100.00% |           0      0.00%    100.00% |           0      0.00%    100.00% |           0      0.00%    100.00% |           0      0.00%    100.00% |           0      0.00%    100.00% |           0      0.00%    100.00% |           0      0.00%    100.00% |           0      0.00%    100.00% |           0      0.00%    100.00% |           0      0.00%    100.00% |           0      0.00%    100.00% |           0      0.00%    100.00% |           0      0.00%    100.00% |           0      0.00%    100.00% |           0      0.00%    100.00% (Unspecified)
board.cache_hierarchy.ruby_system.L1Cache_Controller.LLSC_E.Store::total            2                       (Unspecified)
board.cache_hierarchy.ruby_system.L1Cache_Controller.LLSC_E.LLSC_Timeout |           1    100.00%    100.00% |           0      0.00%    100.00% |           0      0.00%    100.00% |           0      0.00%    100.00% |           0      0.00%    100.00% |           0      0.00%    100.00% |           0      0.00%    100.00% |           0      0.00%    100.00% |           0      0.00%    100.00% |           0      0.00%    100.00% |           0      0.00%    100.00% |           0      0.00%    100.00% |           0      0.00%    100.00% |           0      0.00%    100.00% |           0      0.00%    100.00% |           0      0.00%    100.00% (Unspecified)
board.cache_hierarchy.ruby_system.L1Cache_Controller.LLSC_E.LLSC_Timeout::total            1                       (Unspecified)
board.cache_hierarchy.ruby_system.L1Cache_Controller.LLSC_M.Store |          70    100.00%    100.00% |           0      0.00%    100.00% |           0      0.00%    100.00% |           0      0.00%    100.00% |           0      0.00%    100.00% |           0      0.00%    100.00% |           0      0.00%    100.00% |           0      0.00%    100.00% |           0      0.00%    100.00% |           0      0.00%    100.00% |           0      0.00%    100.00% |           0      0.00%    100.00% |           0      0.00%    100.00% |           0      0.00%    100.00% |           0      0.00%    100.00% |           0      0.00%    100.00% (Unspecified)
board.cache_hierarchy.ruby_system.L1Cache_Controller.LLSC_M.Store::total           70                       (Unspecified)
board.cache_hierarchy.ruby_system.L1Cache_Controller.LLSC_M.LLSC_Timeout |          72    100.00%    100.00% |           0      0.00%    100.00% |           0      0.00%    100.00% |           0      0.00%    100.00% |           0      0.00%    100.00% |           0      0.00%    100.00% |           0      0.00%    100.00% |           0      0.00%    100.00% |           0      0.00%    100.00% |           0      0.00%    100.00% |           0      0.00%    100.00% |           0      0.00%    100.00% |           0      0.00%    100.00% |           0      0.00%    100.00% |           0      0.00%    100.00% |           0      0.00%    100.00% (Unspecified)
board.cache_hierarchy.ruby_system.L1Cache_Controller.LLSC_M.LLSC_Timeout::total           72                       (Unspecified)
board.cache_hierarchy.ruby_system.L2Cache_Controller.L1_GET_INSTR         1800      0.00%      0.00% (Unspecified)
board.cache_hierarchy.ruby_system.L2Cache_Controller.L1_GETS       234557      0.00%      0.00% (Unspecified)
board.cache_hierarchy.ruby_system.L2Cache_Controller.L1_GETX       251182      0.00%      0.00% (Unspecified)
board.cache_hierarchy.ruby_system.L2Cache_Controller.L1_UPGRADE         1963      0.00%      0.00% (Unspecified)
board.cache_hierarchy.ruby_system.L2Cache_Controller.L1_PUTX          462      0.00%      0.00% (Unspecified)
board.cache_hierarchy.ruby_system.L2Cache_Controller.L2_Replacement         1810      0.00%      0.00% (Unspecified)
board.cache_hierarchy.ruby_system.L2Cache_Controller.L2_Replacement_clean         1374      0.00%      0.00% (Unspecified)
board.cache_hierarchy.ruby_system.L2Cache_Controller.Mem_Data         3184      0.00%      0.00% (Unspecified)
board.cache_hierarchy.ruby_system.L2Cache_Controller.Mem_Ack         3184      0.00%      0.00% (Unspecified)
board.cache_hierarchy.ruby_system.L2Cache_Controller.WB_Data        35205      0.00%      0.00% (Unspecified)
board.cache_hierarchy.ruby_system.L2Cache_Controller.WB_Data_clean           36      0.00%      0.00% (Unspecified)
board.cache_hierarchy.ruby_system.L2Cache_Controller.Ack         1111      0.00%      0.00% (Unspecified)
board.cache_hierarchy.ruby_system.L2Cache_Controller.Ack_all          866      0.00%      0.00% (Unspecified)
board.cache_hierarchy.ruby_system.L2Cache_Controller.Unblock        34783      0.00%      0.00% (Unspecified)
board.cache_hierarchy.ruby_system.L2Cache_Controller.Exclusive_Unblock        70553      0.00%      0.00% (Unspecified)
board.cache_hierarchy.ruby_system.L2Cache_Controller.NP.L1_GET_INSTR          313      0.00%      0.00% (Unspecified)
board.cache_hierarchy.ruby_system.L2Cache_Controller.NP.L1_GETS         2154      0.00%      0.00% (Unspecified)
board.cache_hierarchy.ruby_system.L2Cache_Controller.NP.L1_GETX          717      0.00%      0.00% (Unspecified)
board.cache_hierarchy.ruby_system.L2Cache_Controller.SS.L1_GET_INSTR         1287      0.00%      0.00% (Unspecified)
board.cache_hierarchy.ruby_system.L2Cache_Controller.SS.L1_GETS        30267      0.00%      0.00% (Unspecified)
board.cache_hierarchy.ruby_system.L2Cache_Controller.SS.L1_GETX        33450      0.00%      0.00% (Unspecified)
board.cache_hierarchy.ruby_system.L2Cache_Controller.SS.L1_UPGRADE         1118      0.00%      0.00% (Unspecified)
board.cache_hierarchy.ruby_system.L2Cache_Controller.SS.L2_Replacement           55      0.00%      0.00% (Unspecified)
board.cache_hierarchy.ruby_system.L2Cache_Controller.SS.L2_Replacement_clean          272      0.00%      0.00% (Unspecified)
board.cache_hierarchy.ruby_system.L2Cache_Controller.M.L1_GETS         1975      0.00%      0.00% (Unspecified)
board.cache_hierarchy.ruby_system.L2Cache_Controller.M.L1_GETX            4      0.00%      0.00% (Unspecified)
board.cache_hierarchy.ruby_system.L2Cache_Controller.M.L2_Replacement         1433      0.00%      0.00% (Unspecified)
board.cache_hierarchy.ruby_system.L2Cache_Controller.M.L2_Replacement_clean          427      0.00%      0.00% (Unspecified)
board.cache_hierarchy.ruby_system.L2Cache_Controller.MT.L1_GETS        34783      0.00%      0.00% (Unspecified)
board.cache_hierarchy.ruby_system.L2Cache_Controller.MT.L1_GETX        31141      0.00%      0.00% (Unspecified)
board.cache_hierarchy.ruby_system.L2Cache_Controller.MT.L1_PUTX          462      0.00%      0.00% (Unspecified)
board.cache_hierarchy.ruby_system.L2Cache_Controller.MT.L2_Replacement          322      0.00%      0.00% (Unspecified)
board.cache_hierarchy.ruby_system.L2Cache_Controller.MT.L2_Replacement_clean          675      0.00%      0.00% (Unspecified)
board.cache_hierarchy.ruby_system.L2Cache_Controller.M_I.L1_GET_INSTR            4      0.00%      0.00% (Unspecified)
board.cache_hierarchy.ruby_system.L2Cache_Controller.M_I.L1_GETS           29      0.00%      0.00% (Unspecified)
board.cache_hierarchy.ruby_system.L2Cache_Controller.M_I.Mem_Ack         3184      0.00%      0.00% (Unspecified)
board.cache_hierarchy.ruby_system.L2Cache_Controller.MT_I.WB_Data           27      0.00%      0.00% (Unspecified)
board.cache_hierarchy.ruby_system.L2Cache_Controller.MT_I.Ack_all          295      0.00%      0.00% (Unspecified)
board.cache_hierarchy.ruby_system.L2Cache_Controller.MCT_I.WB_Data          431      0.00%      0.00% (Unspecified)
board.cache_hierarchy.ruby_system.L2Cache_Controller.MCT_I.Ack_all          244      0.00%      0.00% (Unspecified)
board.cache_hierarchy.ruby_system.L2Cache_Controller.I_I.Ack          959      0.00%      0.00% (Unspecified)
board.cache_hierarchy.ruby_system.L2Cache_Controller.I_I.Ack_all          272      0.00%      0.00% (Unspecified)
board.cache_hierarchy.ruby_system.L2Cache_Controller.S_I.Ack          152      0.00%      0.00% (Unspecified)
board.cache_hierarchy.ruby_system.L2Cache_Controller.S_I.Ack_all           55      0.00%      0.00% (Unspecified)
board.cache_hierarchy.ruby_system.L2Cache_Controller.ISS.L1_GETS            6      0.00%      0.00% (Unspecified)
board.cache_hierarchy.ruby_system.L2Cache_Controller.ISS.Mem_Data         2148      0.00%      0.00% (Unspecified)
board.cache_hierarchy.ruby_system.L2Cache_Controller.IS.L1_GET_INSTR          196      0.00%      0.00% (Unspecified)
board.cache_hierarchy.ruby_system.L2Cache_Controller.IS.L1_GETS           37      0.00%      0.00% (Unspecified)
board.cache_hierarchy.ruby_system.L2Cache_Controller.IS.Mem_Data          319      0.00%      0.00% (Unspecified)
board.cache_hierarchy.ruby_system.L2Cache_Controller.IM.L1_GETX           14      0.00%      0.00% (Unspecified)
board.cache_hierarchy.ruby_system.L2Cache_Controller.IM.Mem_Data          717      0.00%      0.00% (Unspecified)
board.cache_hierarchy.ruby_system.L2Cache_Controller.SS_MB.L1_GETS        54398      0.00%      0.00% (Unspecified)
board.cache_hierarchy.ruby_system.L2Cache_Controller.SS_MB.L1_GETX        62708      0.00%      0.00% (Unspecified)
board.cache_hierarchy.ruby_system.L2Cache_Controller.SS_MB.L1_UPGRADE          845      0.00%      0.00% (Unspecified)
board.cache_hierarchy.ruby_system.L2Cache_Controller.SS_MB.Exclusive_Unblock        34568      0.00%      0.00% (Unspecified)
board.cache_hierarchy.ruby_system.L2Cache_Controller.MT_MB.L1_GETS        53384      0.00%      0.00% (Unspecified)
board.cache_hierarchy.ruby_system.L2Cache_Controller.MT_MB.L1_GETX        62168      0.00%      0.00% (Unspecified)
board.cache_hierarchy.ruby_system.L2Cache_Controller.MT_MB.Exclusive_Unblock        35985      0.00%      0.00% (Unspecified)
board.cache_hierarchy.ruby_system.L2Cache_Controller.MT_IIB.L1_GETS        57105      0.00%      0.00% (Unspecified)
board.cache_hierarchy.ruby_system.L2Cache_Controller.MT_IIB.L1_GETX        57942      0.00%      0.00% (Unspecified)
board.cache_hierarchy.ruby_system.L2Cache_Controller.MT_IIB.WB_Data        34639      0.00%      0.00% (Unspecified)
board.cache_hierarchy.ruby_system.L2Cache_Controller.MT_IIB.WB_Data_clean           35      0.00%      0.00% (Unspecified)
board.cache_hierarchy.ruby_system.L2Cache_Controller.MT_IIB.Unblock          109      0.00%      0.00% (Unspecified)
board.cache_hierarchy.ruby_system.L2Cache_Controller.MT_IB.L1_GETS            1      0.00%      0.00% (Unspecified)
board.cache_hierarchy.ruby_system.L2Cache_Controller.MT_IB.L1_GETX            1      0.00%      0.00% (Unspecified)
board.cache_hierarchy.ruby_system.L2Cache_Controller.MT_IB.WB_Data          108      0.00%      0.00% (Unspecified)
board.cache_hierarchy.ruby_system.L2Cache_Controller.MT_IB.WB_Data_clean            1      0.00%      0.00% (Unspecified)
board.cache_hierarchy.ruby_system.L2Cache_Controller.MT_SB.L1_GETS          418      0.00%      0.00% (Unspecified)
board.cache_hierarchy.ruby_system.L2Cache_Controller.MT_SB.L1_GETX         3037      0.00%      0.00% (Unspecified)
board.cache_hierarchy.ruby_system.L2Cache_Controller.MT_SB.Unblock        34674      0.00%      0.00% (Unspecified)
board.cache_hierarchy.ruby_system.RequestType.LD.latency_hist_seqr::bucket_size          128                       (Unspecified)
board.cache_hierarchy.ruby_system.RequestType.LD.latency_hist_seqr::max_bucket         1279                       (Unspecified)
board.cache_hierarchy.ruby_system.RequestType.LD.latency_hist_seqr::samples       827324                       (Unspecified)
board.cache_hierarchy.ruby_system.RequestType.LD.latency_hist_seqr::mean     5.789666                       (Unspecified)
board.cache_hierarchy.ruby_system.RequestType.LD.latency_hist_seqr::gmean     1.387837                       (Unspecified)
board.cache_hierarchy.ruby_system.RequestType.LD.latency_hist_seqr::stdev    19.248251                       (Unspecified)
board.cache_hierarchy.ruby_system.RequestType.LD.latency_hist_seqr |      825607     99.79%     99.79% |        1499      0.18%     99.97% |          76      0.01%     99.98% |          85      0.01%     99.99% |          25      0.00%    100.00% |          14      0.00%    100.00% |           7      0.00%    100.00% |          11      0.00%    100.00% |           0      0.00%    100.00% |           0      0.00%    100.00% (Unspecified)
board.cache_hierarchy.ruby_system.RequestType.LD.latency_hist_seqr::total       827324                       (Unspecified)
board.cache_hierarchy.ruby_system.RequestType.LD.hit_latency_hist_seqr::bucket_size            1                       (Unspecified)
board.cache_hierarchy.ruby_system.RequestType.LD.hit_latency_hist_seqr::max_bucket            9                       (Unspecified)
board.cache_hierarchy.ruby_system.RequestType.LD.hit_latency_hist_seqr::samples       758102                       (Unspecified)
board.cache_hierarchy.ruby_system.RequestType.LD.hit_latency_hist_seqr::mean            1                       (Unspecified)
board.cache_hierarchy.ruby_system.RequestType.LD.hit_latency_hist_seqr::gmean            1                       (Unspecified)
board.cache_hierarchy.ruby_system.RequestType.LD.hit_latency_hist_seqr |           0      0.00%      0.00% |      758102    100.00%    100.00% |           0      0.00%    100.00% |           0      0.00%    100.00% |           0      0.00%    100.00% |           0      0.00%    100.00% |           0      0.00%    100.00% |           0      0.00%    100.00% |           0      0.00%    100.00% |           0      0.00%    100.00% (Unspecified)
board.cache_hierarchy.ruby_system.RequestType.LD.hit_latency_hist_seqr::total       758102                       (Unspecified)
board.cache_hierarchy.ruby_system.RequestType.LD.miss_latency_hist_seqr::bucket_size          128                       (Unspecified)
board.cache_hierarchy.ruby_system.RequestType.LD.miss_latency_hist_seqr::max_bucket         1279                       (Unspecified)
board.cache_hierarchy.ruby_system.RequestType.LD.miss_latency_hist_seqr::samples        69222                       (Unspecified)
board.cache_hierarchy.ruby_system.RequestType.LD.miss_latency_hist_seqr::mean    58.244893                       (Unspecified)
board.cache_hierarchy.ruby_system.RequestType.LD.miss_latency_hist_seqr::gmean    50.256796                       (Unspecified)
board.cache_hierarchy.ruby_system.RequestType.LD.miss_latency_hist_seqr::stdev    37.752968                       (Unspecified)
board.cache_hierarchy.ruby_system.RequestType.LD.miss_latency_hist_seqr |       67505     97.52%     97.52% |        1499      2.17%     99.69% |          76      0.11%     99.79% |          85      0.12%     99.92% |          25      0.04%     99.95% |          14      0.02%     99.97% |           7      0.01%     99.98% |          11      0.02%    100.00% |           0      0.00%    100.00% |           0      0.00%    100.00% (Unspecified)
board.cache_hierarchy.ruby_system.RequestType.LD.miss_latency_hist_seqr::total        69222                       (Unspecified)
board.cache_hierarchy.ruby_system.RequestType.ST.latency_hist_seqr::bucket_size          128                       (Unspecified)
board.cache_hierarchy.ruby_system.RequestType.ST.latency_hist_seqr::max_bucket         1279                       (Unspecified)
board.cache_hierarchy.ruby_system.RequestType.ST.latency_hist_seqr::samples       167628                       (Unspecified)
board.cache_hierarchy.ruby_system.RequestType.ST.latency_hist_seqr::mean    23.774095                       (Unspecified)
board.cache_hierarchy.ruby_system.RequestType.ST.latency_hist_seqr::gmean     4.837551                       (Unspecified)
board.cache_hierarchy.ruby_system.RequestType.ST.latency_hist_seqr::stdev    33.251410                       (Unspecified)
board.cache_hierarchy.ruby_system.RequestType.ST.latency_hist_seqr |      166899     99.57%     99.57% |         648      0.39%     99.95% |          26      0.02%     99.97% |          31      0.02%     99.99% |          13      0.01%     99.99% |           0      0.00%     99.99% |           3      0.00%    100.00% |           7      0.00%    100.00% |           0      0.00%    100.00% |           1      0.00%    100.00% (Unspecified)
board.cache_hierarchy.ruby_system.RequestType.ST.latency_hist_seqr::total       167628                       (Unspecified)
board.cache_hierarchy.ruby_system.RequestType.ST.hit_latency_hist_seqr::bucket_size            1                       (Unspecified)
board.cache_hierarchy.ruby_system.RequestType.ST.hit_latency_hist_seqr::max_bucket            9                       (Unspecified)
board.cache_hierarchy.ruby_system.RequestType.ST.hit_latency_hist_seqr::samples       101200                       (Unspecified)
board.cache_hierarchy.ruby_system.RequestType.ST.hit_latency_hist_seqr::mean            1                       (Unspecified)
board.cache_hierarchy.ruby_system.RequestType.ST.hit_latency_hist_seqr::gmean            1                       (Unspecified)
board.cache_hierarchy.ruby_system.RequestType.ST.hit_latency_hist_seqr |           0      0.00%      0.00% |      101200    100.00%    100.00% |           0      0.00%    100.00% |           0      0.00%    100.00% |           0      0.00%    100.00% |           0      0.00%    100.00% |           0      0.00%    100.00% |           0      0.00%    100.00% |           0      0.00%    100.00% |           0      0.00%    100.00% (Unspecified)
board.cache_hierarchy.ruby_system.RequestType.ST.hit_latency_hist_seqr::total       101200                       (Unspecified)
board.cache_hierarchy.ruby_system.RequestType.ST.miss_latency_hist_seqr::bucket_size          128                       (Unspecified)
board.cache_hierarchy.ruby_system.RequestType.ST.miss_latency_hist_seqr::max_bucket         1279                       (Unspecified)
board.cache_hierarchy.ruby_system.RequestType.ST.miss_latency_hist_seqr::samples        66428                       (Unspecified)
board.cache_hierarchy.ruby_system.RequestType.ST.miss_latency_hist_seqr::mean    58.469380                       (Unspecified)
board.cache_hierarchy.ruby_system.RequestType.ST.miss_latency_hist_seqr::gmean    53.409810                       (Unspecified)
board.cache_hierarchy.ruby_system.RequestType.ST.miss_latency_hist_seqr::stdev    28.216155                       (Unspecified)
board.cache_hierarchy.ruby_system.RequestType.ST.miss_latency_hist_seqr |       65699     98.90%     98.90% |         648      0.98%     99.88% |          26      0.04%     99.92% |          31      0.05%     99.96% |          13      0.02%     99.98% |           0      0.00%     99.98% |           3      0.00%     99.99% |           7      0.01%    100.00% |           0      0.00%    100.00% |           1      0.00%    100.00% (Unspecified)
board.cache_hierarchy.ruby_system.RequestType.ST.miss_latency_hist_seqr::total        66428                       (Unspecified)
board.cache_hierarchy.ruby_system.RequestType.IFETCH.latency_hist_seqr::bucket_size          128                       (Unspecified)
board.cache_hierarchy.ruby_system.RequestType.IFETCH.latency_hist_seqr::max_bucket         1279                       (Unspecified)
board.cache_hierarchy.ruby_system.RequestType.IFETCH.latency_hist_seqr::samples      2604406                       (Unspecified)
board.cache_hierarchy.ruby_system.RequestType.IFETCH.latency_hist_seqr::mean     1.041882                       (Unspecified)
board.cache_hierarchy.ruby_system.RequestType.IFETCH.latency_hist_seqr::gmean     1.002277                       (Unspecified)
board.cache_hierarchy.ruby_system.RequestType.IFETCH.latency_hist_seqr::stdev     2.911782                       (Unspecified)
board.cache_hierarchy.ruby_system.RequestType.IFETCH.latency_hist_seqr |     2603936     99.98%     99.98% |         414      0.02%    100.00% |          26      0.00%    100.00% |          24      0.00%    100.00% |           5      0.00%    100.00% |           0      0.00%    100.00% |           0      0.00%    100.00% |           1      0.00%    100.00% |           0      0.00%    100.00% |           0      0.00%    100.00% (Unspecified)
board.cache_hierarchy.ruby_system.RequestType.IFETCH.latency_hist_seqr::total      2604406                       (Unspecified)
board.cache_hierarchy.ruby_system.RequestType.IFETCH.hit_latency_hist_seqr::bucket_size            1                       (Unspecified)
board.cache_hierarchy.ruby_system.RequestType.IFETCH.hit_latency_hist_seqr::max_bucket            9                       (Unspecified)
board.cache_hierarchy.ruby_system.RequestType.IFETCH.hit_latency_hist_seqr::samples      2602610                       (Unspecified)
board.cache_hierarchy.ruby_system.RequestType.IFETCH.hit_latency_hist_seqr::mean            1                       (Unspecified)
board.cache_hierarchy.ruby_system.RequestType.IFETCH.hit_latency_hist_seqr::gmean            1                       (Unspecified)
board.cache_hierarchy.ruby_system.RequestType.IFETCH.hit_latency_hist_seqr |           0      0.00%      0.00% |     2602610    100.00%    100.00% |           0      0.00%    100.00% |           0      0.00%    100.00% |           0      0.00%    100.00% |           0      0.00%    100.00% |           0      0.00%    100.00% |           0      0.00%    100.00% |           0      0.00%    100.00% |           0      0.00%    100.00% (Unspecified)
board.cache_hierarchy.ruby_system.RequestType.IFETCH.hit_latency_hist_seqr::total      2602610                       (Unspecified)
board.cache_hierarchy.ruby_system.RequestType.IFETCH.miss_latency_hist_seqr::bucket_size          128                       (Unspecified)
board.cache_hierarchy.ruby_system.RequestType.IFETCH.miss_latency_hist_seqr::max_bucket         1279                       (Unspecified)
board.cache_hierarchy.ruby_system.RequestType.IFETCH.miss_latency_hist_seqr::samples         1796                       (Unspecified)
board.cache_hierarchy.ruby_system.RequestType.IFETCH.miss_latency_hist_seqr::mean    61.733296                       (Unspecified)
board.cache_hierarchy.ruby_system.RequestType.IFETCH.miss_latency_hist_seqr::gmean    27.043950                       (Unspecified)
board.cache_hierarchy.ruby_system.RequestType.IFETCH.miss_latency_hist_seqr::stdev    92.809276                       (Unspecified)
board.cache_hierarchy.ruby_system.RequestType.IFETCH.miss_latency_hist_seqr |        1326     73.83%     73.83% |         414     23.05%     96.88% |          26      1.45%     98.33% |          24      1.34%     99.67% |           5      0.28%     99.94% |           0      0.00%     99.94% |           0      0.00%     99.94% |           1      0.06%    100.00% |           0      0.00%    100.00% |           0      0.00%    100.00% (Unspecified)
board.cache_hierarchy.ruby_system.RequestType.IFETCH.miss_latency_hist_seqr::total         1796                       (Unspecified)
board.cache_hierarchy.ruby_system.RequestType.Load_Linked.latency_hist_seqr::bucket_size           32                       (Unspecified)
board.cache_hierarchy.ruby_system.RequestType.Load_Linked.latency_hist_seqr::max_bucket          319                       (Unspecified)
board.cache_hierarchy.ruby_system.RequestType.Load_Linked.latency_hist_seqr::samples           73                       (Unspecified)
board.cache_hierarchy.ruby_system.RequestType.Load_Linked.latency_hist_seqr::mean     5.534247                       (Unspecified)
board.cache_hierarchy.ruby_system.RequestType.Load_Linked.latency_hist_seqr::gmean     1.150276                       (Unspecified)
board.cache_hierarchy.ruby_system.RequestType.Load_Linked.latency_hist_seqr::stdev    27.341504                       (Unspecified)
[...]
board.processor.cores9.core.commitStats0.committedInstType::SimdMatMultAcc            0      0.00%     50.23% # Class of committed instruction. (Count)
board.processor.cores9.core.commitStats0.committedInstType::SimdShift            0      0.00%     50.23% # Class of committed instruction. (Count)
board.processor.cores9.core.commitStats0.committedInstType::SimdShiftAcc            0      0.00%     50.23% # Class of committed instruction. (Count)
board.processor.cores9.core.commitStats0.committedInstType::SimdDiv            0      0.00%     50.23% # Class of committed instruction. (Count)
board.processor.cores9.core.commitStats0.committedInstType::SimdSqrt            0      0.00%     50.23% # Class of committed instruction. (Count)
board.processor.cores9.core.commitStats0.committedInstType::SimdFloatAdd            0      0.00%     50.23% # Class of committed instruction. (Count)
board.processor.cores9.core.commitStats0.committedInstType::SimdFloatAlu            0      0.00%     50.23% # Class of committed instruction. (Count)
board.processor.cores9.core.commitStats0.committedInstType::SimdFloatCmp            0      0.00%     50.23% # Class of committed instruction. (Count)
board.processor.cores9.core.commitStats0.committedInstType::SimdFloatCvt            0      0.00%     50.23% # Class of committed instruction. (Count)
board.processor.cores9.core.commitStats0.committedInstType::SimdFloatDiv            0      0.00%     50.23% # Class of committed instruction. (Count)
board.processor.cores9.core.commitStats0.committedInstType::SimdFloatMisc            0      0.00%     50.23% # Class of committed instruction. (Count)
board.processor.cores9.core.commitStats0.committedInstType::SimdFloatMult            0      0.00%     50.23% # Class of committed instruction. (Count)
board.processor.cores9.core.commitStats0.committedInstType::SimdFloatMultAcc            0      0.00%     50.23% # Class of committed instruction. (Count)
board.processor.cores9.core.commitStats0.committedInstType::SimdFloatMatMultAcc            0      0.00%     50.23% # Class of committed instruction. (Count)
board.processor.cores9.core.commitStats0.committedInstType::SimdFloatSqrt            0      0.00%     50.23% # Class of committed instruction. (Count)
board.processor.cores9.core.commitStats0.committedInstType::SimdReduceAdd            0      0.00%     50.23% # Class of committed instruction. (Count)
board.processor.cores9.core.commitStats0.committedInstType::SimdReduceAlu            0      0.00%     50.23% # Class of committed instruction. (Count)
board.processor.cores9.core.commitStats0.committedInstType::SimdReduceCmp            0      0.00%     50.23% # Class of committed instruction. (Count)
board.processor.cores9.core.commitStats0.committedInstType::SimdFloatReduceAdd            0      0.00%     50.23% # Class of committed instruction. (Count)
board.processor.cores9.core.commitStats0.committedInstType::SimdFloatReduceCmp            0      0.00%     50.23% # Class of committed instruction. (Count)
board.processor.cores9.core.commitStats0.committedInstType::SimdAes            0      0.00%     50.23% # Class of committed instruction. (Count)
board.processor.cores9.core.commitStats0.committedInstType::SimdAesMix            0      0.00%     50.23% # Class of committed instruction. (Count)
board.processor.cores9.core.commitStats0.committedInstType::SimdSha1Hash            0      0.00%     50.23% # Class of committed instruction. (Count)
board.processor.cores9.core.commitStats0.committedInstType::SimdSha1Hash2            0      0.00%     50.23% # Class of committed instruction. (Count)
board.processor.cores9.core.commitStats0.committedInstType::SimdSha256Hash            0      0.00%     50.23% # Class of committed instruction. (Count)
board.processor.cores9.core.commitStats0.committedInstType::SimdSha256Hash2            0      0.00%     50.23% # Class of committed instruction. (Count)
board.processor.cores9.core.commitStats0.committedInstType::SimdShaSigma2            0      0.00%     50.23% # Class of committed instruction. (Count)
board.processor.cores9.core.commitStats0.committedInstType::SimdShaSigma3            0      0.00%     50.23% # Class of committed instruction. (Count)
board.processor.cores9.core.commitStats0.committedInstType::SimdSha3            0      0.00%     50.23% # Class of committed instruction. (Count)
board.processor.cores9.core.commitStats0.committedInstType::SimdSm4e            0      0.00%     50.23% # Class of committed instruction. (Count)
board.processor.cores9.core.commitStats0.committedInstType::SimdCrc            0      0.00%     50.23% # Class of committed instruction. (Count)
board.processor.cores9.core.commitStats0.committedInstType::SimdPredAlu            0      0.00%     50.23% # Class of committed instruction. (Count)
board.processor.cores9.core.commitStats0.committedInstType::SimdDotProd            0      0.00%     50.23% # Class of committed instruction. (Count)
board.processor.cores9.core.commitStats0.committedInstType::Matrix            0      0.00%     50.23% # Class of committed instruction. (Count)
board.processor.cores9.core.commitStats0.committedInstType::MatrixMov            0      0.00%     50.23% # Class of committed instruction. (Count)
board.processor.cores9.core.commitStats0.committedInstType::MatrixOP            0      0.00%     50.23% # Class of committed instruction. (Count)
board.processor.cores9.core.commitStats0.committedInstType::MemRead        50549     41.59%     91.82% # Class of committed instruction. (Count)
board.processor.cores9.core.commitStats0.committedInstType::MemWrite         9931      8.17%     99.99% # Class of committed instruction. (Count)
board.processor.cores9.core.commitStats0.committedInstType::FloatMemRead            0      0.00%     99.99% # Class of committed instruction. (Count)
board.processor.cores9.core.commitStats0.committedInstType::FloatMemWrite           12      0.01%    100.00% # Class of committed instruction. (Count)
board.processor.cores9.core.commitStats0.committedInstType::InstPrefetch            0      0.00%    100.00% # Class of committed instruction. (Count)
board.processor.cores9.core.commitStats0.committedInstType::SimdUnitStrideLoad            0      0.00%    100.00% # Class of committed instruction. (Count)
board.processor.cores9.core.commitStats0.committedInstType::SimdUnitStrideStore            0      0.00%    100.00% # Class of committed instruction. (Count)
board.processor.cores9.core.commitStats0.committedInstType::SimdUnitStrideMaskLoad            0      0.00%    100.00% # Class of committed instruction. (Count)
board.processor.cores9.core.commitStats0.committedInstType::SimdUnitStrideMaskStore            0      0.00%    100.00% # Class of committed instruction. (Count)
board.processor.cores9.core.commitStats0.committedInstType::SimdStridedLoad            0      0.00%    100.00% # Class of committed instruction. (Count)
board.processor.cores9.core.commitStats0.committedInstType::SimdStridedStore            0      0.00%    100.00% # Class of committed instruction. (Count)
board.processor.cores9.core.commitStats0.committedInstType::SimdIndexedLoad            0      0.00%    100.00% # Class of committed instruction. (Count)
board.processor.cores9.core.commitStats0.committedInstType::SimdIndexedStore            0      0.00%    100.00% # Class of committed instruction. (Count)
board.processor.cores9.core.commitStats0.committedInstType::SimdWholeRegisterLoad            0      0.00%    100.00% # Class of committed instruction. (Count)
board.processor.cores9.core.commitStats0.committedInstType::SimdWholeRegisterStore            0      0.00%    100.00% # Class of committed instruction. (Count)
board.processor.cores9.core.commitStats0.committedInstType::SimdUnitStrideFaultOnlyFirstLoad            0      0.00%    100.00% # Class of committed instruction. (Count)
board.processor.cores9.core.commitStats0.committedInstType::SimdUnitStrideSegmentedLoad            0      0.00%    100.00% # Class of committed instruction. (Count)
board.processor.cores9.core.commitStats0.committedInstType::SimdUnitStrideSegmentedStore            0      0.00%    100.00% # Class of committed instruction. (Count)
board.processor.cores9.core.commitStats0.committedInstType::SimdUnitStrideSegmentedFaultOnlyFirstLoad            0      0.00%    100.00% # Class of committed instruction. (Count)
board.processor.cores9.core.commitStats0.committedInstType::SimdStrideSegmentedLoad            0      0.00%    100.00% # Class of committed instruction. (Count)
board.processor.cores9.core.commitStats0.committedInstType::SimdStrideSegmentedStore            0      0.00%    100.00% # Class of committed instruction. (Count)
board.processor.cores9.core.commitStats0.committedInstType::SimdExt            0      0.00%    100.00% # Class of committed instruction. (Count)
board.processor.cores9.core.commitStats0.committedInstType::SimdFloatExt            0      0.00%    100.00% # Class of committed instruction. (Count)
board.processor.cores9.core.commitStats0.committedInstType::SimdConfig            0      0.00%    100.00% # Class of committed instruction. (Count)
board.processor.cores9.core.commitStats0.committedInstType::SimdBf16Add            0      0.00%    100.00% # Class of committed instruction. (Count)
board.processor.cores9.core.commitStats0.committedInstType::SimdBf16Cmp            0      0.00%    100.00% # Class of committed instruction. (Count)
board.processor.cores9.core.commitStats0.committedInstType::SimdBf16Cvt            0      0.00%    100.00% # Class of committed instruction. (Count)
board.processor.cores9.core.commitStats0.committedInstType::SimdBf16DotProd            0      0.00%    100.00% # Class of committed instruction. (Count)
board.processor.cores9.core.commitStats0.committedInstType::SimdBf16MatMultAcc            0      0.00%    100.00% # Class of committed instruction. (Count)
board.processor.cores9.core.commitStats0.committedInstType::SimdBf16Mult            0      0.00%    100.00% # Class of committed instruction. (Count)
board.processor.cores9.core.commitStats0.committedInstType::SimdBf16MultAcc            0      0.00%    100.00% # Class of committed instruction. (Count)
board.processor.cores9.core.commitStats0.committedInstType::Bf16Cvt            0      0.00%    100.00% # Class of committed instruction. (Count)
board.processor.cores9.core.commitStats0.committedInstType::System            0      0.00%    100.00% # Class of committed instruction. (Count)
board.processor.cores9.core.commitStats0.committedInstType::total       121532                       # Class of committed instruction. (Count)
board.processor.cores9.core.commitStats0.committedControl::IsControl        11340                       # Class of control type instructions committed (Count)
board.processor.cores9.core.commitStats0.committedControl::IsDirectControl        10567                       # Class of control type instructions committed (Count)
board.processor.cores9.core.commitStats0.committedControl::IsIndirectControl          773                       # Class of control type instructions committed (Count)
board.processor.cores9.core.commitStats0.committedControl::IsCondControl         5682                       # Class of control type instructions committed (Count)
board.processor.cores9.core.commitStats0.committedControl::IsUncondControl         5658                       # Class of control type instructions committed (Count)
board.processor.cores9.core.commitStats0.committedControl::IsCall          775                       # Class of control type instructions committed (Count)
board.processor.cores9.core.commitStats0.committedControl::IsReturn          768                       # Class of control type instructions committed (Count)
board.processor.cores9.core.commitStats0.functionCalls          775                       # Number of function calls committed (Count)
board.processor.cores9.core.commitStats0.numCallsReturns         1543                       # Number of function calls and returns committed (Count)
board.processor.cores9.core.exec_context.thread_0.numMatAluAccesses            0                       # Number of matrix alu accesses (Count)
board.processor.cores9.core.exec_context.thread_0.numMatInsts            0                       # Number of matrix instructions (Count)
board.processor.cores9.core.exec_context.thread_0.numIdleCycles 731652.278514                       # Number of idle cycles (Cycle)
board.processor.cores9.core.exec_context.thread_0.numBusyCycles 4881670.721486                       # Number of busy cycles (Cycle)
board.processor.cores9.core.exec_context.thread_0.notIdleFraction     0.869658                       # Percentage of non-idle cycles (Ratio)
board.processor.cores9.core.exec_context.thread_0.idleFraction     0.130342                       # Percentage of idle cycles (Ratio)
board.processor.cores9.core.executeStats0.numInsts       121525                       # Number of executed instructions (Count)
board.processor.cores9.core.executeStats0.numNop            0                       # Number of nop insts executed (Count)
board.processor.cores9.core.executeStats0.numBranches        11340                       # Number of branches executed (Count)
board.processor.cores9.core.executeStats0.numLoadInsts        50545                       # Number of load instructions executed (Count)
board.processor.cores9.core.executeStats0.numStoreInsts         9947                       # Number of stores executed (Count)
board.processor.cores9.core.executeStats0.instRate     0.021649                       # Inst execution rate ((Count/Cycle))
board.processor.cores9.core.executeStats0.numFpAluAccesses           12                       # Number of float alu accesses (Count)
board.processor.cores9.core.executeStats0.numFpRegReads           12                       # Number of times the floating registers were read (Count)
board.processor.cores9.core.executeStats0.numFpRegWrites            0                       # Number of times the floating registers were written (Count)
board.processor.cores9.core.executeStats0.numIntAluAccesses       117409                       # Number of integer alu accesses (Count)
board.processor.cores9.core.executeStats0.numIntRegReads       147813                       # Number of times the integer registers were read (Count)
board.processor.cores9.core.executeStats0.numIntRegWrites       100267                       # Number of times the integer registers were written (Count)
board.processor.cores9.core.executeStats0.numMemRefs        60492                       # Number of memory refs (Count)
board.processor.cores9.core.executeStats0.numMiscRegReads           28                       # Number of times the Misc registers were read (Count)
board.processor.cores9.core.executeStats0.numVecAluAccesses            0                       # Number of vector alu accesses (Count)
board.processor.cores9.core.executeStats0.numDiscardedOps            0                       # Number of ops (including micro ops) which were discarded before commit (Count)
board.processor.cores9.core.fetchStats0.numInsts       121528                       # Number of instructions fetched (thread level) (Count)
board.processor.cores9.core.fetchStats0.numOps       121535                       # Number of ops (including micro ops) fetched (thread level) (Count)
board.processor.cores9.core.fetchStats0.fetchRate     0.021650                       # Number of inst fetches per cycle ((Count/Cycle))
board.processor.cores9.core.fetchStats0.numBranches        11340                       # Number of branches fetched (Count)
board.processor.cores9.core.fetchStats0.branchRate     0.002020                       # Number of branch fetches per cycle (Ratio)
board.processor.cores9.core.fetchStats0.numFetchSuspends            0                       # Number of times Execute suspended instruction fetching (Count)
board.processor.cores9.core.mmu.dtb.readHits            0                       # read hits (Count)
board.processor.cores9.core.mmu.dtb.readMisses            0                       # read misses (Count)
board.processor.cores9.core.mmu.dtb.readAccesses            0                       # read accesses (Count)
board.processor.cores9.core.mmu.dtb.writeHits            0                       # write hits (Count)
board.processor.cores9.core.mmu.dtb.writeMisses            0                       # write misses (Count)
board.processor.cores9.core.mmu.dtb.writeAccesses            0                       # write accesses (Count)
board.processor.cores9.core.mmu.dtb.hits            0                       # Total TLB (read and write) hits (Count)
board.processor.cores9.core.mmu.dtb.misses            0                       # Total TLB (read and write) misses (Count)
board.processor.cores9.core.mmu.dtb.accesses            0                       # Total TLB (read and write) accesses (Count)
board.processor.cores9.core.mmu.dtb.walker.num_4kb_walks            0                       # Completed page walks with 4KB pages (Count)
board.processor.cores9.core.mmu.dtb.walker.num_64kb_walks            0                       # Completed page walks with 64KB pages (Count)
board.processor.cores9.core.mmu.dtb.walker.num_2mb_walks            0                       # Completed page walks with 2MB pages (Count)
board.processor.cores9.core.mmu.dtb.walker.power_state.pwrStateResidencyTicks::UNDEFINED   1869236559                       # Cumulative time (in ticks) in various power states (Tick)
board.processor.cores9.core.mmu.itb.readHits            0                       # read hits (Count)
board.processor.cores9.core.mmu.itb.readMisses            0                       # read misses (Count)
board.processor.cores9.core.mmu.itb.readAccesses            0                       # read accesses (Count)
board.processor.cores9.core.mmu.itb.writeHits            0                       # write hits (Count)
board.processor.cores9.core.mmu.itb.writeMisses            0                       # write misses (Count)
board.processor.cores9.core.mmu.itb.writeAccesses            0                       # write accesses (Count)
board.processor.cores9.core.mmu.itb.hits            0                       # Total TLB (read and write) hits (Count)
board.processor.cores9.core.mmu.itb.misses            0                       # Total TLB (read and write) misses (Count)
board.processor.cores9.core.mmu.itb.accesses            0                       # Total TLB (read and write) accesses (Count)
board.processor.cores9.core.mmu.itb.walker.num_4kb_walks            0                       # Completed page walks with 4KB pages (Count)
board.processor.cores9.core.mmu.itb.walker.num_64kb_walks            0                       # Completed page walks with 64KB pages (Count)
board.processor.cores9.core.mmu.itb.walker.num_2mb_walks            0                       # Completed page walks with 2MB pages (Count)
board.processor.cores9.core.mmu.itb.walker.power_state.pwrStateResidencyTicks::UNDEFINED   1869236559                       # Cumulative time (in ticks) in various power states (Tick)
board.processor.cores9.core.power_state.pwrStateResidencyTicks::ON   1869236559                       # Cumulative time (in ticks) in various power states (Tick)
board.processor.cores9.core.thread_0.numInsts       121525                       # Number of Instructions committed (Count)
board.processor.cores9.core.thread_0.numOps       121532                       # Number of Ops committed (Count)
board.processor.cores9.core.thread_0.numMemRefs        60492                       # Number of Memory References (Count)
board.workload.inst.arm                             0                       # number of arm instructions executed (Count)
board.workload.inst.quiesce                         0                       # number of quiesce instructions executed (Count)

---------- End Simulation Statistics   ----------
