
---------- Begin Simulation Statistics ----------
simSeconds                                   0.001531                       # Number of seconds simulated (Second)
simTicks                                   1531267533                       # Number of ticks simulated (Tick)
finalTick                                 11841850962                       # Number of ticks from beginning of simulation (restored from checkpoints and never reset) (Tick)
simFreq                                  1000000000000                       # The number of ticks per simulated second ((Tick/Second))
hostSeconds                                     10.98                       # Real time elapsed on the host (Second)
hostTickRate                                139511416                       # The number of ticks simulated per host second (ticks/s) ((Tick/Second))
hostMemory                                    4421024                       # Number of bytes of host memory used (Byte)
simInsts                                      5633590                       # Number of instructions simulated (Count)
simOps                                        5635198                       # Number of ops (including micro ops) simulated (Count)
hostInstRate                                   513262                       # Simulator instruction rate (inst/s) ((Count/Second))
hostOpRate                                     513408                       # Simulator op (including micro ops) rate (op/s) ((Count/Second))
board.cache_hierarchy.clusters0.dptw_cache.blockedCycles::no_mshrs            0                       # number of cycles access was blocked (Cycle)
board.cache_hierarchy.clusters0.dptw_cache.blockedCycles::no_wbuffers            0                       # number of cycles access was blocked (Cycle)
board.cache_hierarchy.clusters0.dptw_cache.blockedCycles::no_targets            0                       # number of cycles access was blocked (Cycle)
board.cache_hierarchy.clusters0.dptw_cache.blockedCauses::no_mshrs            0                       # number of times access was blocked (Count)
board.cache_hierarchy.clusters0.dptw_cache.blockedCauses::no_wbuffers            0                       # number of times access was blocked (Count)
board.cache_hierarchy.clusters0.dptw_cache.blockedCauses::no_targets            0                       # number of times access was blocked (Count)
board.cache_hierarchy.clusters0.dptw_cache.avgBlocked::no_mshrs          nan                       # average number of cycles each access was blocked ((Cycle/Count))
board.cache_hierarchy.clusters0.dptw_cache.avgBlocked::no_wbuffers          nan                       # average number of cycles each access was blocked ((Cycle/Count))
board.cache_hierarchy.clusters0.dptw_cache.avgBlocked::no_targets          nan                       # average number of cycles each access was blocked ((Cycle/Count))
board.cache_hierarchy.clusters0.dptw_cache.replacements            0                       # number of replacements (Count)
board.cache_hierarchy.clusters0.dptw_cache.power_state.pwrStateResidencyTicks::UNDEFINED  11841850962                       # Cumulative time (in ticks) in various power states (Tick)
board.cache_hierarchy.clusters0.dptw_cache.tags.tagsInUse            0                       # Average ticks per tags in use ((Tick/Count))
board.cache_hierarchy.clusters0.dptw_cache.tags.totalRefs            0                       # Total number of references to valid blocks. (Count)
board.cache_hierarchy.clusters0.dptw_cache.tags.sampledRefs            0                       # Sample count of references to valid blocks. (Count)
board.cache_hierarchy.clusters0.dptw_cache.tags.avgRefs          nan                       # Average number of references to valid blocks. ((Count/Count))
board.cache_hierarchy.clusters0.dptw_cache.tags.warmupTick            0                       # The tick when the warmup percentage was hit. (Tick)
board.cache_hierarchy.clusters0.dptw_cache.tags.tagAccesses            0                       # Number of tag accesses (Count)
board.cache_hierarchy.clusters0.dptw_cache.tags.dataAccesses            0                       # Number of data accesses (Count)
board.cache_hierarchy.clusters0.dptw_cache.tags.power_state.pwrStateResidencyTicks::UNDEFINED  11841850962                       # Cumulative time (in ticks) in various power states (Tick)
board.cache_hierarchy.clusters0.iptw_cache.blockedCycles::no_mshrs            0                       # number of cycles access was blocked (Cycle)
board.cache_hierarchy.clusters0.iptw_cache.blockedCycles::no_wbuffers            0                       # number of cycles access was blocked (Cycle)
board.cache_hierarchy.clusters0.iptw_cache.blockedCycles::no_targets            0                       # number of cycles access was blocked (Cycle)
board.cache_hierarchy.clusters0.iptw_cache.blockedCauses::no_mshrs            0                       # number of times access was blocked (Count)
board.cache_hierarchy.clusters0.iptw_cache.blockedCauses::no_wbuffers            0                       # number of times access was blocked (Count)
board.cache_hierarchy.clusters0.iptw_cache.blockedCauses::no_targets            0                       # number of times access was blocked (Count)
board.cache_hierarchy.clusters0.iptw_cache.avgBlocked::no_mshrs          nan                       # average number of cycles each access was blocked ((Cycle/Count))
board.cache_hierarchy.clusters0.iptw_cache.avgBlocked::no_wbuffers          nan                       # average number of cycles each access was blocked ((Cycle/Count))
board.cache_hierarchy.clusters0.iptw_cache.avgBlocked::no_targets          nan                       # average number of cycles each access was blocked ((Cycle/Count))
board.cache_hierarchy.clusters0.iptw_cache.replacements            0                       # number of replacements (Count)
board.cache_hierarchy.clusters0.iptw_cache.power_state.pwrStateResidencyTicks::UNDEFINED  11841850962                       # Cumulative time (in ticks) in various power states (Tick)
board.cache_hierarchy.clusters0.iptw_cache.tags.tagsInUse            0                       # Average ticks per tags in use ((Tick/Count))
board.cache_hierarchy.clusters0.iptw_cache.tags.totalRefs            0                       # Total number of references to valid blocks. (Count)
board.cache_hierarchy.clusters0.iptw_cache.tags.sampledRefs            0                       # Sample count of references to valid blocks. (Count)
board.cache_hierarchy.clusters0.iptw_cache.tags.avgRefs          nan                       # Average number of references to valid blocks. ((Count/Count))
board.cache_hierarchy.clusters0.iptw_cache.tags.warmupTick            0                       # The tick when the warmup percentage was hit. (Tick)
board.cache_hierarchy.clusters0.iptw_cache.tags.tagAccesses            0                       # Number of tag accesses (Count)
board.cache_hierarchy.clusters0.iptw_cache.tags.dataAccesses            0                       # Number of data accesses (Count)
board.cache_hierarchy.clusters0.iptw_cache.tags.power_state.pwrStateResidencyTicks::UNDEFINED  11841850962                       # Cumulative time (in ticks) in various power states (Tick)
board.cache_hierarchy.clusters0.l1d_cache.demandHits::processor.cores0.core.data      1295610                       # number of demand (read+write) hits (Count)
board.cache_hierarchy.clusters0.l1d_cache.demandHits::total      1295610                       # number of demand (read+write) hits (Count)
board.cache_hierarchy.clusters0.l1d_cache.overallHits::processor.cores0.core.data      1295610                       # number of overall hits (Count)
board.cache_hierarchy.clusters0.l1d_cache.overallHits::total      1295610                       # number of overall hits (Count)
board.cache_hierarchy.clusters0.l1d_cache.demandMisses::processor.cores0.core.data        91219                       # number of demand (read+write) misses (Count)
board.cache_hierarchy.clusters0.l1d_cache.demandMisses::total        91219                       # number of demand (read+write) misses (Count)
board.cache_hierarchy.clusters0.l1d_cache.overallMisses::processor.cores0.core.data        91219                       # number of overall misses (Count)
board.cache_hierarchy.clusters0.l1d_cache.overallMisses::total        91219                       # number of overall misses (Count)
board.cache_hierarchy.clusters0.l1d_cache.demandMissLatency::processor.cores0.core.data   1041505119                       # number of demand (read+write) miss ticks (Tick)
board.cache_hierarchy.clusters0.l1d_cache.demandMissLatency::total   1041505119                       # number of demand (read+write) miss ticks (Tick)
board.cache_hierarchy.clusters0.l1d_cache.overallMissLatency::processor.cores0.core.data   1041505119                       # number of overall miss ticks (Tick)
board.cache_hierarchy.clusters0.l1d_cache.overallMissLatency::total   1041505119                       # number of overall miss ticks (Tick)
board.cache_hierarchy.clusters0.l1d_cache.demandAccesses::processor.cores0.core.data      1386829                       # number of demand (read+write) accesses (Count)
board.cache_hierarchy.clusters0.l1d_cache.demandAccesses::total      1386829                       # number of demand (read+write) accesses (Count)
board.cache_hierarchy.clusters0.l1d_cache.overallAccesses::processor.cores0.core.data      1386829                       # number of overall (read+write) accesses (Count)
board.cache_hierarchy.clusters0.l1d_cache.overallAccesses::total      1386829                       # number of overall (read+write) accesses (Count)
board.cache_hierarchy.clusters0.l1d_cache.demandMissRate::processor.cores0.core.data     0.065775                       # miss rate for demand accesses (Ratio)
board.cache_hierarchy.clusters0.l1d_cache.demandMissRate::total     0.065775                       # miss rate for demand accesses (Ratio)
board.cache_hierarchy.clusters0.l1d_cache.overallMissRate::processor.cores0.core.data     0.065775                       # miss rate for overall accesses (Ratio)
board.cache_hierarchy.clusters0.l1d_cache.overallMissRate::total     0.065775                       # miss rate for overall accesses (Ratio)
board.cache_hierarchy.clusters0.l1d_cache.demandAvgMissLatency::processor.cores0.core.data 11417.633596                       # average overall miss latency in ticks ((Tick/Count))
board.cache_hierarchy.clusters0.l1d_cache.demandAvgMissLatency::total 11417.633596                       # average overall miss latency in ticks ((Tick/Count))
board.cache_hierarchy.clusters0.l1d_cache.overallAvgMissLatency::processor.cores0.core.data 11417.633596                       # average overall miss latency ((Tick/Count))
board.cache_hierarchy.clusters0.l1d_cache.overallAvgMissLatency::total 11417.633596                       # average overall miss latency ((Tick/Count))
board.cache_hierarchy.clusters0.l1d_cache.blockedCycles::no_mshrs            0                       # number of cycles access was blocked (Cycle)
board.cache_hierarchy.clusters0.l1d_cache.blockedCycles::no_wbuffers            0                       # number of cycles access was blocked (Cycle)
board.cache_hierarchy.clusters0.l1d_cache.blockedCycles::no_targets            0                       # number of cycles access was blocked (Cycle)
board.cache_hierarchy.clusters0.l1d_cache.blockedCauses::no_mshrs            0                       # number of times access was blocked (Count)
board.cache_hierarchy.clusters0.l1d_cache.blockedCauses::no_wbuffers            0                       # number of times access was blocked (Count)
board.cache_hierarchy.clusters0.l1d_cache.blockedCauses::no_targets            0                       # number of times access was blocked (Count)
board.cache_hierarchy.clusters0.l1d_cache.avgBlocked::no_mshrs          nan                       # average number of cycles each access was blocked ((Cycle/Count))
board.cache_hierarchy.clusters0.l1d_cache.avgBlocked::no_wbuffers          nan                       # average number of cycles each access was blocked ((Cycle/Count))
board.cache_hierarchy.clusters0.l1d_cache.avgBlocked::no_targets          nan                       # average number of cycles each access was blocked ((Cycle/Count))
board.cache_hierarchy.clusters0.l1d_cache.writebacks::writebacks         3976                       # number of writebacks (Count)
board.cache_hierarchy.clusters0.l1d_cache.writebacks::total         3976                       # number of writebacks (Count)
board.cache_hierarchy.clusters0.l1d_cache.demandMshrHits::processor.cores0.core.data        13575                       # number of demand (read+write) MSHR hits (Count)
board.cache_hierarchy.clusters0.l1d_cache.demandMshrHits::total        13575                       # number of demand (read+write) MSHR hits (Count)
board.cache_hierarchy.clusters0.l1d_cache.overallMshrHits::processor.cores0.core.data        13575                       # number of overall MSHR hits (Count)
board.cache_hierarchy.clusters0.l1d_cache.overallMshrHits::total        13575                       # number of overall MSHR hits (Count)
board.cache_hierarchy.clusters0.l1d_cache.demandMshrMisses::processor.cores0.core.data        77644                       # number of demand (read+write) MSHR misses (Count)
board.cache_hierarchy.clusters0.l1d_cache.demandMshrMisses::total        77644                       # number of demand (read+write) MSHR misses (Count)
board.cache_hierarchy.clusters0.l1d_cache.overallMshrMisses::cache_hierarchy.clusters0.l1d_cache.prefetcher         1293                       # number of overall MSHR misses (Count)
board.cache_hierarchy.clusters0.l1d_cache.overallMshrMisses::processor.cores0.core.data        77644                       # number of overall MSHR misses (Count)
board.cache_hierarchy.clusters0.l1d_cache.overallMshrMisses::total        78937                       # number of overall MSHR misses (Count)
board.cache_hierarchy.clusters0.l1d_cache.demandMshrMissLatency::processor.cores0.core.data    977462559                       # number of demand (read+write) MSHR miss ticks (Tick)
board.cache_hierarchy.clusters0.l1d_cache.demandMshrMissLatency::total    977462559                       # number of demand (read+write) MSHR miss ticks (Tick)
board.cache_hierarchy.clusters0.l1d_cache.overallMshrMissLatency::cache_hierarchy.clusters0.l1d_cache.prefetcher      9555925                       # number of overall MSHR miss ticks (Tick)
board.cache_hierarchy.clusters0.l1d_cache.overallMshrMissLatency::processor.cores0.core.data    977462559                       # number of overall MSHR miss ticks (Tick)
board.cache_hierarchy.clusters0.l1d_cache.overallMshrMissLatency::total    987018484                       # number of overall MSHR miss ticks (Tick)
board.cache_hierarchy.clusters0.l1d_cache.demandMshrMissRate::processor.cores0.core.data     0.055987                       # mshr miss ratio for demand accesses (Ratio)
board.cache_hierarchy.clusters0.l1d_cache.demandMshrMissRate::total     0.055987                       # mshr miss ratio for demand accesses (Ratio)
board.cache_hierarchy.clusters0.l1d_cache.overallMshrMissRate::cache_hierarchy.clusters0.l1d_cache.prefetcher          inf                       # mshr miss ratio for overall accesses (Ratio)
board.cache_hierarchy.clusters0.l1d_cache.overallMshrMissRate::processor.cores0.core.data     0.055987                       # mshr miss ratio for overall accesses (Ratio)
board.cache_hierarchy.clusters0.l1d_cache.overallMshrMissRate::total     0.056919                       # mshr miss ratio for overall accesses (Ratio)
board.cache_hierarchy.clusters0.l1d_cache.demandAvgMshrMissLatency::processor.cores0.core.data 12589.028888                       # average overall mshr miss latency ((Tick/Count))
board.cache_hierarchy.clusters0.l1d_cache.demandAvgMshrMissLatency::total 12589.028888                       # average overall mshr miss latency ((Tick/Count))
board.cache_hierarchy.clusters0.l1d_cache.overallAvgMshrMissLatency::cache_hierarchy.clusters0.l1d_cache.prefetcher  7390.506574                       # average overall mshr miss latency ((Tick/Count))
board.cache_hierarchy.clusters0.l1d_cache.overallAvgMshrMissLatency::processor.cores0.core.data 12589.028888                       # average overall mshr miss latency ((Tick/Count))
board.cache_hierarchy.clusters0.l1d_cache.overallAvgMshrMissLatency::total 12503.876306                       # average overall mshr miss latency ((Tick/Count))
board.cache_hierarchy.clusters0.l1d_cache.replacements         3976                       # number of replacements (Count)
board.cache_hierarchy.clusters0.l1d_cache.HardPFReq.mshrMisses::cache_hierarchy.clusters0.l1d_cache.prefetcher         1293                       # number of HardPFReq MSHR misses (Count)
board.cache_hierarchy.clusters0.l1d_cache.HardPFReq.mshrMisses::total         1293                       # number of HardPFReq MSHR misses (Count)
board.cache_hierarchy.clusters0.l1d_cache.HardPFReq.mshrMissLatency::cache_hierarchy.clusters0.l1d_cache.prefetcher      9555925                       # number of HardPFReq MSHR miss ticks (Tick)
board.cache_hierarchy.clusters0.l1d_cache.HardPFReq.mshrMissLatency::total      9555925                       # number of HardPFReq MSHR miss ticks (Tick)
board.cache_hierarchy.clusters0.l1d_cache.HardPFReq.mshrMissRate::cache_hierarchy.clusters0.l1d_cache.prefetcher          inf                       # mshr miss rate for HardPFReq accesses (Ratio)
board.cache_hierarchy.clusters0.l1d_cache.HardPFReq.mshrMissRate::total          inf                       # mshr miss rate for HardPFReq accesses (Ratio)
board.cache_hierarchy.clusters0.l1d_cache.HardPFReq.avgMshrMissLatency::cache_hierarchy.clusters0.l1d_cache.prefetcher  7390.506574                       # average HardPFReq mshr miss latency ((Tick/Count))
board.cache_hierarchy.clusters0.l1d_cache.HardPFReq.avgMshrMissLatency::total  7390.506574                       # average HardPFReq mshr miss latency ((Tick/Count))
board.cache_hierarchy.clusters0.l1d_cache.LoadLockedReq.hits::processor.cores0.core.data          100                       # number of LoadLockedReq hits (Count)
board.cache_hierarchy.clusters0.l1d_cache.LoadLockedReq.hits::total          100                       # number of LoadLockedReq hits (Count)
board.cache_hierarchy.clusters0.l1d_cache.LoadLockedReq.accesses::processor.cores0.core.data          100                       # number of LoadLockedReq accesses(hits+misses) (Count)
board.cache_hierarchy.clusters0.l1d_cache.LoadLockedReq.accesses::total          100                       # number of LoadLockedReq accesses(hits+misses) (Count)
board.cache_hierarchy.clusters0.l1d_cache.ReadReq.hits::processor.cores0.core.data      1140362                       # number of ReadReq hits (Count)
board.cache_hierarchy.clusters0.l1d_cache.ReadReq.hits::total      1140362                       # number of ReadReq hits (Count)
board.cache_hierarchy.clusters0.l1d_cache.ReadReq.misses::processor.cores0.core.data        30640                       # number of ReadReq misses (Count)
board.cache_hierarchy.clusters0.l1d_cache.ReadReq.misses::total        30640                       # number of ReadReq misses (Count)
board.cache_hierarchy.clusters0.l1d_cache.ReadReq.missLatency::processor.cores0.core.data    332414586                       # number of ReadReq miss ticks (Tick)
board.cache_hierarchy.clusters0.l1d_cache.ReadReq.missLatency::total    332414586                       # number of ReadReq miss ticks (Tick)
board.cache_hierarchy.clusters0.l1d_cache.ReadReq.accesses::processor.cores0.core.data      1171002                       # number of ReadReq accesses(hits+misses) (Count)
board.cache_hierarchy.clusters0.l1d_cache.ReadReq.accesses::total      1171002                       # number of ReadReq accesses(hits+misses) (Count)
board.cache_hierarchy.clusters0.l1d_cache.ReadReq.missRate::processor.cores0.core.data     0.026166                       # miss rate for ReadReq accesses (Ratio)
board.cache_hierarchy.clusters0.l1d_cache.ReadReq.missRate::total     0.026166                       # miss rate for ReadReq accesses (Ratio)
board.cache_hierarchy.clusters0.l1d_cache.ReadReq.avgMissLatency::processor.cores0.core.data 10849.040013                       # average ReadReq miss latency ((Tick/Count))
board.cache_hierarchy.clusters0.l1d_cache.ReadReq.avgMissLatency::total 10849.040013                       # average ReadReq miss latency ((Tick/Count))
board.cache_hierarchy.clusters0.l1d_cache.ReadReq.mshrHits::processor.cores0.core.data          203                       # number of ReadReq MSHR hits (Count)
board.cache_hierarchy.clusters0.l1d_cache.ReadReq.mshrHits::total          203                       # number of ReadReq MSHR hits (Count)
board.cache_hierarchy.clusters0.l1d_cache.ReadReq.mshrMisses::processor.cores0.core.data        30437                       # number of ReadReq MSHR misses (Count)
board.cache_hierarchy.clusters0.l1d_cache.ReadReq.mshrMisses::total        30437                       # number of ReadReq MSHR misses (Count)
board.cache_hierarchy.clusters0.l1d_cache.ReadReq.mshrMissLatency::processor.cores0.core.data    320365980                       # number of ReadReq MSHR miss ticks (Tick)
board.cache_hierarchy.clusters0.l1d_cache.ReadReq.mshrMissLatency::total    320365980                       # number of ReadReq MSHR miss ticks (Tick)
board.cache_hierarchy.clusters0.l1d_cache.ReadReq.mshrMissRate::processor.cores0.core.data     0.025992                       # mshr miss rate for ReadReq accesses (Ratio)
board.cache_hierarchy.clusters0.l1d_cache.ReadReq.mshrMissRate::total     0.025992                       # mshr miss rate for ReadReq accesses (Ratio)
board.cache_hierarchy.clusters0.l1d_cache.ReadReq.avgMshrMissLatency::processor.cores0.core.data 10525.543910                       # average ReadReq mshr miss latency ((Tick/Count))
board.cache_hierarchy.clusters0.l1d_cache.ReadReq.avgMshrMissLatency::total 10525.543910                       # average ReadReq mshr miss latency ((Tick/Count))
board.cache_hierarchy.clusters0.l1d_cache.StoreCondReq.hits::processor.cores0.core.data            1                       # number of StoreCondReq hits (Count)
board.cache_hierarchy.clusters0.l1d_cache.StoreCondReq.hits::total            1                       # number of StoreCondReq hits (Count)
board.cache_hierarchy.clusters0.l1d_cache.StoreCondReq.misses::processor.cores0.core.data           99                       # number of StoreCondReq misses (Count)
board.cache_hierarchy.clusters0.l1d_cache.StoreCondReq.misses::total           99                       # number of StoreCondReq misses (Count)
board.cache_hierarchy.clusters0.l1d_cache.StoreCondReq.missLatency::processor.cores0.core.data      1582416                       # number of StoreCondReq miss ticks (Tick)
board.cache_hierarchy.clusters0.l1d_cache.StoreCondReq.missLatency::total      1582416                       # number of StoreCondReq miss ticks (Tick)
board.cache_hierarchy.clusters0.l1d_cache.StoreCondReq.accesses::processor.cores0.core.data          100                       # number of StoreCondReq accesses(hits+misses) (Count)
board.cache_hierarchy.clusters0.l1d_cache.StoreCondReq.accesses::total          100                       # number of StoreCondReq accesses(hits+misses) (Count)
board.cache_hierarchy.clusters0.l1d_cache.StoreCondReq.missRate::processor.cores0.core.data     0.990000                       # miss rate for StoreCondReq accesses (Ratio)
board.cache_hierarchy.clusters0.l1d_cache.StoreCondReq.missRate::total     0.990000                       # miss rate for StoreCondReq accesses (Ratio)
board.cache_hierarchy.clusters0.l1d_cache.StoreCondReq.avgMissLatency::processor.cores0.core.data        15984                       # average StoreCondReq miss latency ((Tick/Count))
board.cache_hierarchy.clusters0.l1d_cache.StoreCondReq.avgMissLatency::total        15984                       # average StoreCondReq miss latency ((Tick/Count))
board.cache_hierarchy.clusters0.l1d_cache.StoreCondReq.mshrMisses::processor.cores0.core.data           99                       # number of StoreCondReq MSHR misses (Count)
board.cache_hierarchy.clusters0.l1d_cache.StoreCondReq.mshrMisses::total           99                       # number of StoreCondReq MSHR misses (Count)
board.cache_hierarchy.clusters0.l1d_cache.StoreCondReq.mshrMissLatency::processor.cores0.core.data      1549449                       # number of StoreCondReq MSHR miss ticks (Tick)
board.cache_hierarchy.clusters0.l1d_cache.StoreCondReq.mshrMissLatency::total      1549449                       # number of StoreCondReq MSHR miss ticks (Tick)
board.cache_hierarchy.clusters0.l1d_cache.StoreCondReq.mshrMissRate::processor.cores0.core.data     0.990000                       # mshr miss rate for StoreCondReq accesses (Ratio)
board.cache_hierarchy.clusters0.l1d_cache.StoreCondReq.mshrMissRate::total     0.990000                       # mshr miss rate for StoreCondReq accesses (Ratio)
board.cache_hierarchy.clusters0.l1d_cache.StoreCondReq.avgMshrMissLatency::processor.cores0.core.data        15651                       # average StoreCondReq mshr miss latency ((Tick/Count))
board.cache_hierarchy.clusters0.l1d_cache.StoreCondReq.avgMshrMissLatency::total        15651                       # average StoreCondReq mshr miss latency ((Tick/Count))
board.cache_hierarchy.clusters0.l1d_cache.SwapReq.hits::processor.cores0.core.data           76                       # number of SwapReq hits (Count)
board.cache_hierarchy.clusters0.l1d_cache.SwapReq.hits::total           76                       # number of SwapReq hits (Count)
board.cache_hierarchy.clusters0.l1d_cache.SwapReq.misses::processor.cores0.core.data          326                       # number of SwapReq misses (Count)
board.cache_hierarchy.clusters0.l1d_cache.SwapReq.misses::total          326                       # number of SwapReq misses (Count)
board.cache_hierarchy.clusters0.l1d_cache.SwapReq.missLatency::processor.cores0.core.data      3039624                       # number of SwapReq miss ticks (Tick)
board.cache_hierarchy.clusters0.l1d_cache.SwapReq.missLatency::total      3039624                       # number of SwapReq miss ticks (Tick)
board.cache_hierarchy.clusters0.l1d_cache.SwapReq.accesses::processor.cores0.core.data          402                       # number of SwapReq accesses(hits+misses) (Count)
board.cache_hierarchy.clusters0.l1d_cache.SwapReq.accesses::total          402                       # number of SwapReq accesses(hits+misses) (Count)
board.cache_hierarchy.clusters0.l1d_cache.SwapReq.missRate::processor.cores0.core.data     0.810945                       # miss rate for SwapReq accesses (Ratio)
board.cache_hierarchy.clusters0.l1d_cache.SwapReq.missRate::total     0.810945                       # miss rate for SwapReq accesses (Ratio)
board.cache_hierarchy.clusters0.l1d_cache.SwapReq.avgMissLatency::processor.cores0.core.data         9324                       # average SwapReq miss latency ((Tick/Count))
board.cache_hierarchy.clusters0.l1d_cache.SwapReq.avgMissLatency::total         9324                       # average SwapReq miss latency ((Tick/Count))
board.cache_hierarchy.clusters0.l1d_cache.SwapReq.mshrMisses::processor.cores0.core.data          326                       # number of SwapReq MSHR misses (Count)
board.cache_hierarchy.clusters0.l1d_cache.SwapReq.mshrMisses::total          326                       # number of SwapReq MSHR misses (Count)
board.cache_hierarchy.clusters0.l1d_cache.SwapReq.mshrMissLatency::processor.cores0.core.data      2931066                       # number of SwapReq MSHR miss ticks (Tick)
board.cache_hierarchy.clusters0.l1d_cache.SwapReq.mshrMissLatency::total      2931066                       # number of SwapReq MSHR miss ticks (Tick)
board.cache_hierarchy.clusters0.l1d_cache.SwapReq.mshrMissRate::processor.cores0.core.data     0.810945                       # mshr miss rate for SwapReq accesses (Ratio)
board.cache_hierarchy.clusters0.l1d_cache.SwapReq.mshrMissRate::total     0.810945                       # mshr miss rate for SwapReq accesses (Ratio)
board.cache_hierarchy.clusters0.l1d_cache.SwapReq.avgMshrMissLatency::processor.cores0.core.data         8991                       # average SwapReq mshr miss latency ((Tick/Count))
board.cache_hierarchy.clusters0.l1d_cache.SwapReq.avgMshrMissLatency::total         8991                       # average SwapReq mshr miss latency ((Tick/Count))
board.cache_hierarchy.clusters0.l1d_cache.WriteReq.hits::processor.cores0.core.data       155248                       # number of WriteReq hits (Count)
board.cache_hierarchy.clusters0.l1d_cache.WriteReq.hits::total       155248                       # number of WriteReq hits (Count)
board.cache_hierarchy.clusters0.l1d_cache.WriteReq.misses::processor.cores0.core.data        60579                       # number of WriteReq misses (Count)
board.cache_hierarchy.clusters0.l1d_cache.WriteReq.misses::total        60579                       # number of WriteReq misses (Count)
board.cache_hierarchy.clusters0.l1d_cache.WriteReq.missLatency::processor.cores0.core.data    709090533                       # number of WriteReq miss ticks (Tick)
board.cache_hierarchy.clusters0.l1d_cache.WriteReq.missLatency::total    709090533                       # number of WriteReq miss ticks (Tick)
board.cache_hierarchy.clusters0.l1d_cache.WriteReq.accesses::processor.cores0.core.data       215827                       # number of WriteReq accesses(hits+misses) (Count)
board.cache_hierarchy.clusters0.l1d_cache.WriteReq.accesses::total       215827                       # number of WriteReq accesses(hits+misses) (Count)
board.cache_hierarchy.clusters0.l1d_cache.WriteReq.missRate::processor.cores0.core.data     0.280683                       # miss rate for WriteReq accesses (Ratio)
board.cache_hierarchy.clusters0.l1d_cache.WriteReq.missRate::total     0.280683                       # miss rate for WriteReq accesses (Ratio)
board.cache_hierarchy.clusters0.l1d_cache.WriteReq.avgMissLatency::processor.cores0.core.data 11705.220175                       # average WriteReq miss latency ((Tick/Count))
board.cache_hierarchy.clusters0.l1d_cache.WriteReq.avgMissLatency::total 11705.220175                       # average WriteReq miss latency ((Tick/Count))
board.cache_hierarchy.clusters0.l1d_cache.WriteReq.mshrHits::processor.cores0.core.data        13372                       # number of WriteReq MSHR hits (Count)
board.cache_hierarchy.clusters0.l1d_cache.WriteReq.mshrHits::total        13372                       # number of WriteReq MSHR hits (Count)
board.cache_hierarchy.clusters0.l1d_cache.WriteReq.mshrMisses::processor.cores0.core.data        47207                       # number of WriteReq MSHR misses (Count)
board.cache_hierarchy.clusters0.l1d_cache.WriteReq.mshrMisses::total        47207                       # number of WriteReq MSHR misses (Count)
board.cache_hierarchy.clusters0.l1d_cache.WriteReq.mshrMissLatency::processor.cores0.core.data    657096579                       # number of WriteReq MSHR miss ticks (Tick)
board.cache_hierarchy.clusters0.l1d_cache.WriteReq.mshrMissLatency::total    657096579                       # number of WriteReq MSHR miss ticks (Tick)
board.cache_hierarchy.clusters0.l1d_cache.WriteReq.mshrMissRate::processor.cores0.core.data     0.218726                       # mshr miss rate for WriteReq accesses (Ratio)
board.cache_hierarchy.clusters0.l1d_cache.WriteReq.mshrMissRate::total     0.218726                       # mshr miss rate for WriteReq accesses (Ratio)
board.cache_hierarchy.clusters0.l1d_cache.WriteReq.avgMshrMissLatency::processor.cores0.core.data 13919.473362                       # average WriteReq mshr miss latency ((Tick/Count))
board.cache_hierarchy.clusters0.l1d_cache.WriteReq.avgMshrMissLatency::total 13919.473362                       # average WriteReq mshr miss latency ((Tick/Count))
board.cache_hierarchy.clusters0.l1d_cache.power_state.pwrStateResidencyTicks::UNDEFINED  11841850962                       # Cumulative time (in ticks) in various power states (Tick)
board.cache_hierarchy.clusters0.l1d_cache.prefetcher.demandMshrMisses        77644                       # demands not covered by prefetchs (Count)
board.cache_hierarchy.clusters0.l1d_cache.prefetcher.pfIssued         3759                       # number of hwpf issued (Count)
board.cache_hierarchy.clusters0.l1d_cache.prefetcher.pfUnused          289                       # number of HardPF blocks evicted w/o reference (Count)
board.cache_hierarchy.clusters0.l1d_cache.prefetcher.pfUseful         1009                       # number of useful prefetch (Count)
board.cache_hierarchy.clusters0.l1d_cache.prefetcher.pfUsefulButMiss           59                       # number of hit on prefetch but cache block is not in an usable state (Count)
board.cache_hierarchy.clusters0.l1d_cache.prefetcher.accuracy     0.268422                       # accuracy of the prefetcher (Count)
board.cache_hierarchy.clusters0.l1d_cache.prefetcher.coverage     0.012828                       # coverage brought by this prefetcher (Count)
board.cache_hierarchy.clusters0.l1d_cache.prefetcher.pfHitInCache         2459                       # number of prefetches hitting in cache (Count)
board.cache_hierarchy.clusters0.l1d_cache.prefetcher.pfHitInMSHR            7                       # number of prefetches hitting in a MSHR (Count)
board.cache_hierarchy.clusters0.l1d_cache.prefetcher.pfHitInWB            0                       # number of prefetches hit in the Write Buffer (Count)
board.cache_hierarchy.clusters0.l1d_cache.prefetcher.pfLate         2466                       # number of late prefetches (hitting in cache, MSHR or WB) (Count)
board.cache_hierarchy.clusters0.l1d_cache.prefetcher.pfIdentified         3759                       # number of prefetch candidates identified (Count)
board.cache_hierarchy.clusters0.l1d_cache.prefetcher.pfBufferHit            0                       # number of redundant prefetches already in prefetch queue (Count)
board.cache_hierarchy.clusters0.l1d_cache.prefetcher.pfInCache            0                       # number of redundant prefetches already in cache/mshr dropped (Count)
board.cache_hierarchy.clusters0.l1d_cache.prefetcher.pfRemovedDemand            0                       # number of prefetches dropped due to a demand for the same address (Count)
board.cache_hierarchy.clusters0.l1d_cache.prefetcher.pfRemovedFull            0                       # number of prefetches dropped due to prefetch queue size (Count)
board.cache_hierarchy.clusters0.l1d_cache.prefetcher.pfSpanPage         2713                       # number of prefetches that crossed the page (Count)
board.cache_hierarchy.clusters0.l1d_cache.prefetcher.pfUsefulSpanPage          665                       # number of prefetches that is useful and crossed the page (Count)
board.cache_hierarchy.clusters0.l1d_cache.prefetcher.power_state.pwrStateResidencyTicks::UNDEFINED  11841850962                       # Cumulative time (in ticks) in various power states (Tick)
board.cache_hierarchy.clusters0.l1d_cache.tags.tagsInUse   509.838540                       # Average ticks per tags in use ((Tick/Count))
board.cache_hierarchy.clusters0.l1d_cache.tags.totalRefs      8482412                       # Total number of references to valid blocks. (Count)
board.cache_hierarchy.clusters0.l1d_cache.tags.sampledRefs        50078                       # Sample count of references to valid blocks. (Count)
board.cache_hierarchy.clusters0.l1d_cache.tags.avgRefs   169.384001                       # Average number of references to valid blocks. ((Count/Count))
board.cache_hierarchy.clusters0.l1d_cache.tags.warmupTick            0                       # The tick when the warmup percentage was hit. (Tick)
board.cache_hierarchy.clusters0.l1d_cache.tags.occupancies::cache_hierarchy.clusters0.l1d_cache.prefetcher   239.456692                       # Average occupied blocks per tick, per requestor ((Count/Tick))
board.cache_hierarchy.clusters0.l1d_cache.tags.occupancies::processor.cores0.core.data   270.381848                       # Average occupied blocks per tick, per requestor ((Count/Tick))
board.cache_hierarchy.clusters0.l1d_cache.tags.avgOccs::cache_hierarchy.clusters0.l1d_cache.prefetcher     0.467689                       # Average percentage of cache occupancy ((Ratio/Tick))
board.cache_hierarchy.clusters0.l1d_cache.tags.avgOccs::processor.cores0.core.data     0.528090                       # Average percentage of cache occupancy ((Ratio/Tick))
board.cache_hierarchy.clusters0.l1d_cache.tags.avgOccs::total     0.995778                       # Average percentage of cache occupancy ((Ratio/Tick))
board.cache_hierarchy.clusters0.l1d_cache.tags.occupanciesTaskId::1022          302                       # Occupied blocks per task id (Count)
board.cache_hierarchy.clusters0.l1d_cache.tags.occupanciesTaskId::1024          207                       # Occupied blocks per task id (Count)
board.cache_hierarchy.clusters0.l1d_cache.tags.ageTaskId_1022::0           20                       # Occupied blocks per task id, per block age (Count)
board.cache_hierarchy.clusters0.l1d_cache.tags.ageTaskId_1022::1           88                       # Occupied blocks per task id, per block age (Count)
board.cache_hierarchy.clusters0.l1d_cache.tags.ageTaskId_1022::2          184                       # Occupied blocks per task id, per block age (Count)
board.cache_hierarchy.clusters0.l1d_cache.tags.ageTaskId_1022::3           10                       # Occupied blocks per task id, per block age (Count)
board.cache_hierarchy.clusters0.l1d_cache.tags.ageTaskId_1024::0            7                       # Occupied blocks per task id, per block age (Count)
board.cache_hierarchy.clusters0.l1d_cache.tags.ageTaskId_1024::1           20                       # Occupied blocks per task id, per block age (Count)
board.cache_hierarchy.clusters0.l1d_cache.tags.ageTaskId_1024::2          135                       # Occupied blocks per task id, per block age (Count)
board.cache_hierarchy.clusters0.l1d_cache.tags.ageTaskId_1024::3           45                       # Occupied blocks per task id, per block age (Count)
board.cache_hierarchy.clusters0.l1d_cache.tags.ratioOccsTaskId::1022     0.589844                       # Ratio of occupied blocks and all blocks, per task id (Ratio)
board.cache_hierarchy.clusters0.l1d_cache.tags.ratioOccsTaskId::1024     0.404297                       # Ratio of occupied blocks and all blocks, per task id (Ratio)
board.cache_hierarchy.clusters0.l1d_cache.tags.tagAccesses     11149524                       # Number of tag accesses (Count)
board.cache_hierarchy.clusters0.l1d_cache.tags.dataAccesses     11149524                       # Number of data accesses (Count)
board.cache_hierarchy.clusters0.l1d_cache.tags.power_state.pwrStateResidencyTicks::UNDEFINED  11841850962                       # Cumulative time (in ticks) in various power states (Tick)
board.cache_hierarchy.clusters0.l1i_cache.demandHits::processor.cores0.core.inst       610712                       # number of demand (read+write) hits (Count)
board.cache_hierarchy.clusters0.l1i_cache.demandHits::total       610712                       # number of demand (read+write) hits (Count)
board.cache_hierarchy.clusters0.l1i_cache.overallHits::processor.cores0.core.inst       610712                       # number of overall hits (Count)
board.cache_hierarchy.clusters0.l1i_cache.overallHits::total       610712                       # number of overall hits (Count)
board.cache_hierarchy.clusters0.l1i_cache.demandMisses::processor.cores0.core.inst           55                       # number of demand (read+write) misses (Count)
board.cache_hierarchy.clusters0.l1i_cache.demandMisses::total           55                       # number of demand (read+write) misses (Count)
board.cache_hierarchy.clusters0.l1i_cache.overallMisses::processor.cores0.core.inst           55                       # number of overall misses (Count)
board.cache_hierarchy.clusters0.l1i_cache.overallMisses::total           55                       # number of overall misses (Count)
board.cache_hierarchy.clusters0.l1i_cache.demandMissLatency::processor.cores0.core.inst      1661004                       # number of demand (read+write) miss ticks (Tick)
board.cache_hierarchy.clusters0.l1i_cache.demandMissLatency::total      1661004                       # number of demand (read+write) miss ticks (Tick)
board.cache_hierarchy.clusters0.l1i_cache.overallMissLatency::processor.cores0.core.inst      1661004                       # number of overall miss ticks (Tick)
board.cache_hierarchy.clusters0.l1i_cache.overallMissLatency::total      1661004                       # number of overall miss ticks (Tick)
board.cache_hierarchy.clusters0.l1i_cache.demandAccesses::processor.cores0.core.inst       610767                       # number of demand (read+write) accesses (Count)
board.cache_hierarchy.clusters0.l1i_cache.demandAccesses::total       610767                       # number of demand (read+write) accesses (Count)
board.cache_hierarchy.clusters0.l1i_cache.overallAccesses::processor.cores0.core.inst       610767                       # number of overall (read+write) accesses (Count)
board.cache_hierarchy.clusters0.l1i_cache.overallAccesses::total       610767                       # number of overall (read+write) accesses (Count)
board.cache_hierarchy.clusters0.l1i_cache.demandMissRate::processor.cores0.core.inst     0.000090                       # miss rate for demand accesses (Ratio)
board.cache_hierarchy.clusters0.l1i_cache.demandMissRate::total     0.000090                       # miss rate for demand accesses (Ratio)
board.cache_hierarchy.clusters0.l1i_cache.overallMissRate::processor.cores0.core.inst     0.000090                       # miss rate for overall accesses (Ratio)
board.cache_hierarchy.clusters0.l1i_cache.overallMissRate::total     0.000090                       # miss rate for overall accesses (Ratio)
board.cache_hierarchy.clusters0.l1i_cache.demandAvgMissLatency::processor.cores0.core.inst 30200.072727                       # average overall miss latency in ticks ((Tick/Count))
board.cache_hierarchy.clusters0.l1i_cache.demandAvgMissLatency::total 30200.072727                       # average overall miss latency in ticks ((Tick/Count))
board.cache_hierarchy.clusters0.l1i_cache.overallAvgMissLatency::processor.cores0.core.inst 30200.072727                       # average overall miss latency ((Tick/Count))
board.cache_hierarchy.clusters0.l1i_cache.overallAvgMissLatency::total 30200.072727                       # average overall miss latency ((Tick/Count))
board.cache_hierarchy.clusters0.l1i_cache.blockedCycles::no_mshrs            0                       # number of cycles access was blocked (Cycle)
board.cache_hierarchy.clusters0.l1i_cache.blockedCycles::no_wbuffers            0                       # number of cycles access was blocked (Cycle)
board.cache_hierarchy.clusters0.l1i_cache.blockedCycles::no_targets            0                       # number of cycles access was blocked (Cycle)
board.cache_hierarchy.clusters0.l1i_cache.blockedCauses::no_mshrs            0                       # number of times access was blocked (Count)
board.cache_hierarchy.clusters0.l1i_cache.blockedCauses::no_wbuffers            0                       # number of times access was blocked (Count)
board.cache_hierarchy.clusters0.l1i_cache.blockedCauses::no_targets            0                       # number of times access was blocked (Count)
board.cache_hierarchy.clusters0.l1i_cache.avgBlocked::no_mshrs          nan                       # average number of cycles each access was blocked ((Cycle/Count))
board.cache_hierarchy.clusters0.l1i_cache.avgBlocked::no_wbuffers          nan                       # average number of cycles each access was blocked ((Cycle/Count))
board.cache_hierarchy.clusters0.l1i_cache.avgBlocked::no_targets          nan                       # average number of cycles each access was blocked ((Cycle/Count))
board.cache_hierarchy.clusters0.l1i_cache.writebacks::writebacks           56                       # number of writebacks (Count)
board.cache_hierarchy.clusters0.l1i_cache.writebacks::total           56                       # number of writebacks (Count)
board.cache_hierarchy.clusters0.l1i_cache.demandMshrMisses::processor.cores0.core.inst           55                       # number of demand (read+write) MSHR misses (Count)
board.cache_hierarchy.clusters0.l1i_cache.demandMshrMisses::total           55                       # number of demand (read+write) MSHR misses (Count)
board.cache_hierarchy.clusters0.l1i_cache.overallMshrMisses::processor.cores0.core.inst           55                       # number of overall MSHR misses (Count)
board.cache_hierarchy.clusters0.l1i_cache.overallMshrMisses::total           55                       # number of overall MSHR misses (Count)
board.cache_hierarchy.clusters0.l1i_cache.demandMshrMissLatency::processor.cores0.core.inst      1642356                       # number of demand (read+write) MSHR miss ticks (Tick)
board.cache_hierarchy.clusters0.l1i_cache.demandMshrMissLatency::total      1642356                       # number of demand (read+write) MSHR miss ticks (Tick)
board.cache_hierarchy.clusters0.l1i_cache.overallMshrMissLatency::processor.cores0.core.inst      1642356                       # number of overall MSHR miss ticks (Tick)
board.cache_hierarchy.clusters0.l1i_cache.overallMshrMissLatency::total      1642356                       # number of overall MSHR miss ticks (Tick)
board.cache_hierarchy.clusters0.l1i_cache.demandMshrMissRate::processor.cores0.core.inst     0.000090                       # mshr miss ratio for demand accesses (Ratio)
board.cache_hierarchy.clusters0.l1i_cache.demandMshrMissRate::total     0.000090                       # mshr miss ratio for demand accesses (Ratio)
board.cache_hierarchy.clusters0.l1i_cache.overallMshrMissRate::processor.cores0.core.inst     0.000090                       # mshr miss ratio for overall accesses (Ratio)
board.cache_hierarchy.clusters0.l1i_cache.overallMshrMissRate::total     0.000090                       # mshr miss ratio for overall accesses (Ratio)
board.cache_hierarchy.clusters0.l1i_cache.demandAvgMshrMissLatency::processor.cores0.core.inst 29861.018182                       # average overall mshr miss latency ((Tick/Count))
board.cache_hierarchy.clusters0.l1i_cache.demandAvgMshrMissLatency::total 29861.018182                       # average overall mshr miss latency ((Tick/Count))
board.cache_hierarchy.clusters0.l1i_cache.overallAvgMshrMissLatency::processor.cores0.core.inst 29861.018182                       # average overall mshr miss latency ((Tick/Count))
board.cache_hierarchy.clusters0.l1i_cache.overallAvgMshrMissLatency::total 29861.018182                       # average overall mshr miss latency ((Tick/Count))
board.cache_hierarchy.clusters0.l1i_cache.replacements           56                       # number of replacements (Count)
board.cache_hierarchy.clusters0.l1i_cache.ReadReq.hits::processor.cores0.core.inst       610712                       # number of ReadReq hits (Count)
board.cache_hierarchy.clusters0.l1i_cache.ReadReq.hits::total       610712                       # number of ReadReq hits (Count)
board.cache_hierarchy.clusters0.l1i_cache.ReadReq.misses::processor.cores0.core.inst           55                       # number of ReadReq misses (Count)
board.cache_hierarchy.clusters0.l1i_cache.ReadReq.misses::total           55                       # number of ReadReq misses (Count)
board.cache_hierarchy.clusters0.l1i_cache.ReadReq.missLatency::processor.cores0.core.inst      1661004                       # number of ReadReq miss ticks (Tick)
board.cache_hierarchy.clusters0.l1i_cache.ReadReq.missLatency::total      1661004                       # number of ReadReq miss ticks (Tick)
board.cache_hierarchy.clusters0.l1i_cache.ReadReq.accesses::processor.cores0.core.inst       610767                       # number of ReadReq accesses(hits+misses) (Count)
board.cache_hierarchy.clusters0.l1i_cache.ReadReq.accesses::total       610767                       # number of ReadReq accesses(hits+misses) (Count)
board.cache_hierarchy.clusters0.l1i_cache.ReadReq.missRate::processor.cores0.core.inst     0.000090                       # miss rate for ReadReq accesses (Ratio)
board.cache_hierarchy.clusters0.l1i_cache.ReadReq.missRate::total     0.000090                       # miss rate for ReadReq accesses (Ratio)
board.cache_hierarchy.clusters0.l1i_cache.ReadReq.avgMissLatency::processor.cores0.core.inst 30200.072727                       # average ReadReq miss latency ((Tick/Count))
board.cache_hierarchy.clusters0.l1i_cache.ReadReq.avgMissLatency::total 30200.072727                       # average ReadReq miss latency ((Tick/Count))
board.cache_hierarchy.clusters0.l1i_cache.ReadReq.mshrMisses::processor.cores0.core.inst           55                       # number of ReadReq MSHR misses (Count)
board.cache_hierarchy.clusters0.l1i_cache.ReadReq.mshrMisses::total           55                       # number of ReadReq MSHR misses (Count)
board.cache_hierarchy.clusters0.l1i_cache.ReadReq.mshrMissLatency::processor.cores0.core.inst      1642356                       # number of ReadReq MSHR miss ticks (Tick)
board.cache_hierarchy.clusters0.l1i_cache.ReadReq.mshrMissLatency::total      1642356                       # number of ReadReq MSHR miss ticks (Tick)
board.cache_hierarchy.clusters0.l1i_cache.ReadReq.mshrMissRate::processor.cores0.core.inst     0.000090                       # mshr miss rate for ReadReq accesses (Ratio)
board.cache_hierarchy.clusters0.l1i_cache.ReadReq.mshrMissRate::total     0.000090                       # mshr miss rate for ReadReq accesses (Ratio)
board.cache_hierarchy.clusters0.l1i_cache.ReadReq.avgMshrMissLatency::processor.cores0.core.inst 29861.018182                       # average ReadReq mshr miss latency ((Tick/Count))
board.cache_hierarchy.clusters0.l1i_cache.ReadReq.avgMshrMissLatency::total 29861.018182                       # average ReadReq mshr miss latency ((Tick/Count))
board.cache_hierarchy.clusters0.l1i_cache.power_state.pwrStateResidencyTicks::UNDEFINED  11841850962                       # Cumulative time (in ticks) in various power states (Tick)
board.cache_hierarchy.clusters0.l1i_cache.prefetcher.demandMshrMisses           55                       # demands not covered by prefetchs (Count)
board.cache_hierarchy.clusters0.l1i_cache.prefetcher.pfIssued            0                       # number of hwpf issued (Count)
board.cache_hierarchy.clusters0.l1i_cache.prefetcher.pfUseful            0                       # number of useful prefetch (Count)
board.cache_hierarchy.clusters0.l1i_cache.prefetcher.pfUsefulButMiss            0                       # number of hit on prefetch but cache block is not in an usable state (Count)
board.cache_hierarchy.clusters0.l1i_cache.prefetcher.accuracy          nan                       # accuracy of the prefetcher (Count)
board.cache_hierarchy.clusters0.l1i_cache.prefetcher.coverage            0                       # coverage brought by this prefetcher (Count)
board.cache_hierarchy.clusters0.l1i_cache.prefetcher.pfHitInCache            0                       # number of prefetches hitting in cache (Count)
board.cache_hierarchy.clusters0.l1i_cache.prefetcher.pfHitInMSHR            0                       # number of prefetches hitting in a MSHR (Count)
board.cache_hierarchy.clusters0.l1i_cache.prefetcher.pfHitInWB            0                       # number of prefetches hit in the Write Buffer (Count)
board.cache_hierarchy.clusters0.l1i_cache.prefetcher.pfLate            0                       # number of late prefetches (hitting in cache, MSHR or WB) (Count)
board.cache_hierarchy.clusters0.l1i_cache.prefetcher.pfIdentified            0                       # number of prefetch candidates identified (Count)
board.cache_hierarchy.clusters0.l1i_cache.prefetcher.pfBufferHit            0                       # number of redundant prefetches already in prefetch queue (Count)
board.cache_hierarchy.clusters0.l1i_cache.prefetcher.pfInCache            0                       # number of redundant prefetches already in cache/mshr dropped (Count)
board.cache_hierarchy.clusters0.l1i_cache.prefetcher.pfRemovedDemand            0                       # number of prefetches dropped due to a demand for the same address (Count)
board.cache_hierarchy.clusters0.l1i_cache.prefetcher.pfRemovedFull            0                       # number of prefetches dropped due to prefetch queue size (Count)
board.cache_hierarchy.clusters0.l1i_cache.prefetcher.pfSpanPage            0                       # number of prefetches that crossed the page (Count)
board.cache_hierarchy.clusters0.l1i_cache.prefetcher.pfUsefulSpanPage            0                       # number of prefetches that is useful and crossed the page (Count)
board.cache_hierarchy.clusters0.l1i_cache.prefetcher.power_state.pwrStateResidencyTicks::UNDEFINED  11841850962                       # Cumulative time (in ticks) in various power states (Tick)
board.cache_hierarchy.clusters0.l1i_cache.tags.tagsInUse          512                       # Average ticks per tags in use ((Tick/Count))
board.cache_hierarchy.clusters0.l1i_cache.tags.totalRefs         2968                       # Total number of references to valid blocks. (Count)
board.cache_hierarchy.clusters0.l1i_cache.tags.sampledRefs           56                       # Sample count of references to valid blocks. (Count)
board.cache_hierarchy.clusters0.l1i_cache.tags.avgRefs           53                       # Average number of references to valid blocks. ((Count/Count))
board.cache_hierarchy.clusters0.l1i_cache.tags.warmupTick            0                       # The tick when the warmup percentage was hit. (Tick)
board.cache_hierarchy.clusters0.l1i_cache.tags.occupancies::processor.cores0.core.inst          512                       # Average occupied blocks per tick, per requestor ((Count/Tick))
board.cache_hierarchy.clusters0.l1i_cache.tags.avgOccs::processor.cores0.core.inst            1                       # Average percentage of cache occupancy ((Ratio/Tick))
board.cache_hierarchy.clusters0.l1i_cache.tags.avgOccs::total            1                       # Average percentage of cache occupancy ((Ratio/Tick))
board.cache_hierarchy.clusters0.l1i_cache.tags.occupanciesTaskId::1024          512                       # Occupied blocks per task id (Count)
board.cache_hierarchy.clusters0.l1i_cache.tags.ageTaskId_1024::3          113                       # Occupied blocks per task id, per block age (Count)
board.cache_hierarchy.clusters0.l1i_cache.tags.ageTaskId_1024::4          399                       # Occupied blocks per task id, per block age (Count)
board.cache_hierarchy.clusters0.l1i_cache.tags.ratioOccsTaskId::1024            1                       # Ratio of occupied blocks and all blocks, per task id (Ratio)
board.cache_hierarchy.clusters0.l1i_cache.tags.tagAccesses      4886192                       # Number of tag accesses (Count)
board.cache_hierarchy.clusters0.l1i_cache.tags.dataAccesses      4886192                       # Number of data accesses (Count)
board.cache_hierarchy.clusters0.l1i_cache.tags.power_state.pwrStateResidencyTicks::UNDEFINED  11841850962                       # Cumulative time (in ticks) in various power states (Tick)
board.cache_hierarchy.clusters0.l2_bus.transDist::ReadResp        61441                       # Transaction distribution (Count)
board.cache_hierarchy.clusters0.l2_bus.transDist::WritebackDirty         3021                       # Transaction distribution (Count)
board.cache_hierarchy.clusters0.l2_bus.transDist::WritebackClean         1122                       # Transaction distribution (Count)
board.cache_hierarchy.clusters0.l2_bus.transDist::CleanEvict          987                       # Transaction distribution (Count)
board.cache_hierarchy.clusters0.l2_bus.transDist::HardPFReq         1029                       # Transaction distribution (Count)
board.cache_hierarchy.clusters0.l2_bus.transDist::UpgradeReq        63865                       # Transaction distribution (Count)
board.cache_hierarchy.clusters0.l2_bus.transDist::SCUpgradeReq          198                       # Transaction distribution (Count)
board.cache_hierarchy.clusters0.l2_bus.transDist::UpgradeResp        36732                       # Transaction distribution (Count)
board.cache_hierarchy.clusters0.l2_bus.transDist::SCUpgradeFailReq            1                       # Transaction distribution (Count)
board.cache_hierarchy.clusters0.l2_bus.transDist::UpgradeFailResp            1                       # Transaction distribution (Count)
board.cache_hierarchy.clusters0.l2_bus.transDist::ReadExReq        29874                       # Transaction distribution (Count)
board.cache_hierarchy.clusters0.l2_bus.transDist::ReadExResp        36230                       # Transaction distribution (Count)
board.cache_hierarchy.clusters0.l2_bus.transDist::ReadSharedReq        61528                       # Transaction distribution (Count)
board.cache_hierarchy.clusters0.l2_bus.pktCount_board.cache_hierarchy.clusters0.l1d_cache.mem_side_port::board.cache_hierarchy.clusters0.l2_cache.cpu_side_port       217837                       # Packet count per connected requestor and responder (Count)
board.cache_hierarchy.clusters0.l2_bus.pktCount_board.cache_hierarchy.clusters0.l1i_cache.mem_side_port::board.cache_hierarchy.clusters0.l2_cache.cpu_side_port          167                       # Packet count per connected requestor and responder (Count)
board.cache_hierarchy.clusters0.l2_bus.pktCount::total       218004                       # Packet count per connected requestor and responder (Count)
board.cache_hierarchy.clusters0.l2_bus.pktSize_board.cache_hierarchy.clusters0.l1d_cache.mem_side_port::board.cache_hierarchy.clusters0.l2_cache.cpu_side_port      6501888                       # Cumulative packet size per connected requestor and responder (Byte)
board.cache_hierarchy.clusters0.l2_bus.pktSize_board.cache_hierarchy.clusters0.l1i_cache.mem_side_port::board.cache_hierarchy.clusters0.l2_cache.cpu_side_port         7168                       # Cumulative packet size per connected requestor and responder (Byte)
board.cache_hierarchy.clusters0.l2_bus.pktSize::total      6509056                       # Cumulative packet size per connected requestor and responder (Byte)
board.cache_hierarchy.clusters0.l2_bus.snoops       132860                       # Total snoops (Count)
board.cache_hierarchy.clusters0.l2_bus.snoopTraffic      3049664                       # Total snoop traffic (Byte)
board.cache_hierarchy.clusters0.l2_bus.snoopFanout::samples       157593                       # Request fanout histogram (Count)
board.cache_hierarchy.clusters0.l2_bus.snoopFanout::mean     0.482077                       # Request fanout histogram (Count)
board.cache_hierarchy.clusters0.l2_bus.snoopFanout::stdev     0.499680                       # Request fanout histogram (Count)
board.cache_hierarchy.clusters0.l2_bus.snoopFanout::underflows            0      0.00%      0.00% # Request fanout histogram (Count)
board.cache_hierarchy.clusters0.l2_bus.snoopFanout::0        81621     51.79%     51.79% # Request fanout histogram (Count)
board.cache_hierarchy.clusters0.l2_bus.snoopFanout::1        75972     48.21%    100.00% # Request fanout histogram (Count)
board.cache_hierarchy.clusters0.l2_bus.snoopFanout::2            0      0.00%    100.00% # Request fanout histogram (Count)
board.cache_hierarchy.clusters0.l2_bus.snoopFanout::3            0      0.00%    100.00% # Request fanout histogram (Count)
board.cache_hierarchy.clusters0.l2_bus.snoopFanout::4            0      0.00%    100.00% # Request fanout histogram (Count)
board.cache_hierarchy.clusters0.l2_bus.snoopFanout::overflows            0      0.00%    100.00% # Request fanout histogram (Count)
board.cache_hierarchy.clusters0.l2_bus.snoopFanout::min_value            0                       # Request fanout histogram (Count)
board.cache_hierarchy.clusters0.l2_bus.snoopFanout::max_value            1                       # Request fanout histogram (Count)
board.cache_hierarchy.clusters0.l2_bus.snoopFanout::total       157593                       # Request fanout histogram (Count)
board.cache_hierarchy.clusters0.l2_bus.power_state.pwrStateResidencyTicks::UNDEFINED  11841850962                       # Cumulative time (in ticks) in various power states (Tick)
board.cache_hierarchy.clusters0.l2_bus.reqLayer0.occupancy     35265503                       # Layer occupancy (ticks) (Tick)
board.cache_hierarchy.clusters0.l2_bus.reqLayer0.utilization          0.0                       # Layer utilization (Ratio)
board.cache_hierarchy.clusters0.l2_bus.respLayer0.occupancy     59828445                       # Layer occupancy (ticks) (Tick)
board.cache_hierarchy.clusters0.l2_bus.respLayer0.utilization          0.0                       # Layer utilization (Ratio)
board.cache_hierarchy.clusters0.l2_bus.respLayer1.occupancy        55944                       # Layer occupancy (ticks) (Tick)
board.cache_hierarchy.clusters0.l2_bus.respLayer1.utilization          0.0                       # Layer utilization (Ratio)
board.cache_hierarchy.clusters0.l2_bus.snoopLayer0.occupancy     52172987                       # Layer occupancy (ticks) (Tick)
board.cache_hierarchy.clusters0.l2_bus.snoopLayer0.utilization          0.0                       # Layer utilization (Ratio)
board.cache_hierarchy.clusters0.l2_bus.snoop_filter.totRequests        83600                       # Total number of requests made to the snoop filter. (Count)
board.cache_hierarchy.clusters0.l2_bus.snoop_filter.hitSingleRequests        46626                       # Number of requests hitting in the snoop filter with a single holder of the requested data. (Count)
board.cache_hierarchy.clusters0.l2_bus.snoop_filter.hitMultiRequests            0                       # Number of requests hitting in the snoop filter with multiple (>1) holders of the requested data. (Count)
board.cache_hierarchy.clusters0.l2_bus.snoop_filter.totSnoops        75972                       # Total number of snoops made to the snoop filter. (Count)
board.cache_hierarchy.clusters0.l2_bus.snoop_filter.hitSingleSnoops        75972                       # Number of snoops hitting in the snoop filter with a single holder of the requested data. (Count)
board.cache_hierarchy.clusters0.l2_bus.snoop_filter.hitMultiSnoops            0                       # Number of snoops hitting in the snoop filter with multiple (>1) holders of the requested data. (Count)
board.cache_hierarchy.clusters0.l2_cache.demandHits::cache_hierarchy.clusters0.l1d_cache.prefetcher         1087                       # number of demand (read+write) hits (Count)
board.cache_hierarchy.clusters0.l2_cache.demandHits::processor.cores0.core.inst           24                       # number of demand (read+write) hits (Count)
board.cache_hierarchy.clusters0.l2_cache.demandHits::processor.cores0.core.data         2252                       # number of demand (read+write) hits (Count)
board.cache_hierarchy.clusters0.l2_cache.demandHits::total         3363                       # number of demand (read+write) hits (Count)
board.cache_hierarchy.clusters0.l2_cache.overallHits::cache_hierarchy.clusters0.l1d_cache.prefetcher         1087                       # number of overall hits (Count)
board.cache_hierarchy.clusters0.l2_cache.overallHits::processor.cores0.core.inst           24                       # number of overall hits (Count)
board.cache_hierarchy.clusters0.l2_cache.overallHits::processor.cores0.core.data         2252                       # number of overall hits (Count)
board.cache_hierarchy.clusters0.l2_cache.overallHits::total         3363                       # number of overall hits (Count)
board.cache_hierarchy.clusters0.l2_cache.demandMisses::cache_hierarchy.clusters0.l1d_cache.prefetcher          206                       # number of demand (read+write) misses (Count)
board.cache_hierarchy.clusters0.l2_cache.demandMisses::processor.cores0.core.inst           31                       # number of demand (read+write) misses (Count)
board.cache_hierarchy.clusters0.l2_cache.demandMisses::processor.cores0.core.data        40171                       # number of demand (read+write) misses (Count)
board.cache_hierarchy.clusters0.l2_cache.demandMisses::total        40408                       # number of demand (read+write) misses (Count)
board.cache_hierarchy.clusters0.l2_cache.overallMisses::cache_hierarchy.clusters0.l1d_cache.prefetcher          206                       # number of overall misses (Count)
board.cache_hierarchy.clusters0.l2_cache.overallMisses::processor.cores0.core.inst           31                       # number of overall misses (Count)
board.cache_hierarchy.clusters0.l2_cache.overallMisses::processor.cores0.core.data        40171                       # number of overall misses (Count)
board.cache_hierarchy.clusters0.l2_cache.overallMisses::total        40408                       # number of overall misses (Count)
board.cache_hierarchy.clusters0.l2_cache.demandMissLatency::cache_hierarchy.clusters0.l1d_cache.prefetcher      4006648                       # number of demand (read+write) miss ticks (Tick)
board.cache_hierarchy.clusters0.l2_cache.demandMissLatency::processor.cores0.core.inst      1516815                       # number of demand (read+write) miss ticks (Tick)
board.cache_hierarchy.clusters0.l2_cache.demandMissLatency::processor.cores0.core.data    523443641                       # number of demand (read+write) miss ticks (Tick)
board.cache_hierarchy.clusters0.l2_cache.demandMissLatency::total    528967104                       # number of demand (read+write) miss ticks (Tick)
board.cache_hierarchy.clusters0.l2_cache.overallMissLatency::cache_hierarchy.clusters0.l1d_cache.prefetcher      4006648                       # number of overall miss ticks (Tick)
board.cache_hierarchy.clusters0.l2_cache.overallMissLatency::processor.cores0.core.inst      1516815                       # number of overall miss ticks (Tick)
board.cache_hierarchy.clusters0.l2_cache.overallMissLatency::processor.cores0.core.data    523443641                       # number of overall miss ticks (Tick)
board.cache_hierarchy.clusters0.l2_cache.overallMissLatency::total    528967104                       # number of overall miss ticks (Tick)
board.cache_hierarchy.clusters0.l2_cache.demandAccesses::cache_hierarchy.clusters0.l1d_cache.prefetcher         1293                       # number of demand (read+write) accesses (Count)
board.cache_hierarchy.clusters0.l2_cache.demandAccesses::processor.cores0.core.inst           55                       # number of demand (read+write) accesses (Count)
board.cache_hierarchy.clusters0.l2_cache.demandAccesses::processor.cores0.core.data        42423                       # number of demand (read+write) accesses (Count)
board.cache_hierarchy.clusters0.l2_cache.demandAccesses::total        43771                       # number of demand (read+write) accesses (Count)
board.cache_hierarchy.clusters0.l2_cache.overallAccesses::cache_hierarchy.clusters0.l1d_cache.prefetcher         1293                       # number of overall (read+write) accesses (Count)
board.cache_hierarchy.clusters0.l2_cache.overallAccesses::processor.cores0.core.inst           55                       # number of overall (read+write) accesses (Count)
board.cache_hierarchy.clusters0.l2_cache.overallAccesses::processor.cores0.core.data        42423                       # number of overall (read+write) accesses (Count)
board.cache_hierarchy.clusters0.l2_cache.overallAccesses::total        43771                       # number of overall (read+write) accesses (Count)
board.cache_hierarchy.clusters0.l2_cache.demandMissRate::cache_hierarchy.clusters0.l1d_cache.prefetcher     0.159319                       # miss rate for demand accesses (Ratio)
board.cache_hierarchy.clusters0.l2_cache.demandMissRate::processor.cores0.core.inst     0.563636                       # miss rate for demand accesses (Ratio)
board.cache_hierarchy.clusters0.l2_cache.demandMissRate::processor.cores0.core.data     0.946916                       # miss rate for demand accesses (Ratio)
board.cache_hierarchy.clusters0.l2_cache.demandMissRate::total     0.923168                       # miss rate for demand accesses (Ratio)
board.cache_hierarchy.clusters0.l2_cache.overallMissRate::cache_hierarchy.clusters0.l1d_cache.prefetcher     0.159319                       # miss rate for overall accesses (Ratio)
board.cache_hierarchy.clusters0.l2_cache.overallMissRate::processor.cores0.core.inst     0.563636                       # miss rate for overall accesses (Ratio)
board.cache_hierarchy.clusters0.l2_cache.overallMissRate::processor.cores0.core.data     0.946916                       # miss rate for overall accesses (Ratio)
board.cache_hierarchy.clusters0.l2_cache.overallMissRate::total     0.923168                       # miss rate for overall accesses (Ratio)
board.cache_hierarchy.clusters0.l2_cache.demandAvgMissLatency::cache_hierarchy.clusters0.l1d_cache.prefetcher 19449.747573                       # average overall miss latency in ticks ((Tick/Count))
board.cache_hierarchy.clusters0.l2_cache.demandAvgMissLatency::processor.cores0.core.inst 48929.516129                       # average overall miss latency in ticks ((Tick/Count))
board.cache_hierarchy.clusters0.l2_cache.demandAvgMissLatency::processor.cores0.core.data 13030.386124                       # average overall miss latency in ticks ((Tick/Count))
board.cache_hierarchy.clusters0.l2_cache.demandAvgMissLatency::total 13090.652940                       # average overall miss latency in ticks ((Tick/Count))
board.cache_hierarchy.clusters0.l2_cache.overallAvgMissLatency::cache_hierarchy.clusters0.l1d_cache.prefetcher 19449.747573                       # average overall miss latency ((Tick/Count))
board.cache_hierarchy.clusters0.l2_cache.overallAvgMissLatency::processor.cores0.core.inst 48929.516129                       # average overall miss latency ((Tick/Count))
board.cache_hierarchy.clusters0.l2_cache.overallAvgMissLatency::processor.cores0.core.data 13030.386124                       # average overall miss latency ((Tick/Count))
board.cache_hierarchy.clusters0.l2_cache.overallAvgMissLatency::total 13090.652940                       # average overall miss latency ((Tick/Count))
board.cache_hierarchy.clusters0.l2_cache.blockedCycles::no_mshrs            0                       # number of cycles access was blocked (Cycle)
board.cache_hierarchy.clusters0.l2_cache.blockedCycles::no_wbuffers            0                       # number of cycles access was blocked (Cycle)
board.cache_hierarchy.clusters0.l2_cache.blockedCycles::no_targets            0                       # number of cycles access was blocked (Cycle)
board.cache_hierarchy.clusters0.l2_cache.blockedCauses::no_mshrs            0                       # number of times access was blocked (Count)
board.cache_hierarchy.clusters0.l2_cache.blockedCauses::no_wbuffers            0                       # number of times access was blocked (Count)
board.cache_hierarchy.clusters0.l2_cache.blockedCauses::no_targets            0                       # number of times access was blocked (Count)
board.cache_hierarchy.clusters0.l2_cache.avgBlocked::no_mshrs          nan                       # average number of cycles each access was blocked ((Cycle/Count))
board.cache_hierarchy.clusters0.l2_cache.avgBlocked::no_wbuffers          nan                       # average number of cycles each access was blocked ((Cycle/Count))
board.cache_hierarchy.clusters0.l2_cache.avgBlocked::no_targets          nan                       # average number of cycles each access was blocked ((Cycle/Count))
board.cache_hierarchy.clusters0.l2_cache.writebacks::writebacks          111                       # number of writebacks (Count)
board.cache_hierarchy.clusters0.l2_cache.writebacks::total          111                       # number of writebacks (Count)
board.cache_hierarchy.clusters0.l2_cache.demandMshrHits::cache_hierarchy.clusters0.l1d_cache.prefetcher          105                       # number of demand (read+write) MSHR hits (Count)
board.cache_hierarchy.clusters0.l2_cache.demandMshrHits::total          105                       # number of demand (read+write) MSHR hits (Count)
board.cache_hierarchy.clusters0.l2_cache.overallMshrHits::cache_hierarchy.clusters0.l1d_cache.prefetcher          105                       # number of overall MSHR hits (Count)
board.cache_hierarchy.clusters0.l2_cache.overallMshrHits::total          105                       # number of overall MSHR hits (Count)
board.cache_hierarchy.clusters0.l2_cache.demandMshrMisses::cache_hierarchy.clusters0.l1d_cache.prefetcher          101                       # number of demand (read+write) MSHR misses (Count)
board.cache_hierarchy.clusters0.l2_cache.demandMshrMisses::processor.cores0.core.inst           31                       # number of demand (read+write) MSHR misses (Count)
board.cache_hierarchy.clusters0.l2_cache.demandMshrMisses::processor.cores0.core.data        40171                       # number of demand (read+write) MSHR misses (Count)
board.cache_hierarchy.clusters0.l2_cache.demandMshrMisses::total        40303                       # number of demand (read+write) MSHR misses (Count)
board.cache_hierarchy.clusters0.l2_cache.overallMshrMisses::cache_hierarchy.clusters0.l1d_cache.prefetcher          101                       # number of overall MSHR misses (Count)
board.cache_hierarchy.clusters0.l2_cache.overallMshrMisses::cache_hierarchy.clusters0.l2_cache.prefetcher          742                       # number of overall MSHR misses (Count)
board.cache_hierarchy.clusters0.l2_cache.overallMshrMisses::processor.cores0.core.inst           31                       # number of overall MSHR misses (Count)
board.cache_hierarchy.clusters0.l2_cache.overallMshrMisses::processor.cores0.core.data        40171                       # number of overall MSHR misses (Count)
board.cache_hierarchy.clusters0.l2_cache.overallMshrMisses::total        41045                       # number of overall MSHR misses (Count)
board.cache_hierarchy.clusters0.l2_cache.demandMshrMissLatency::cache_hierarchy.clusters0.l1d_cache.prefetcher      1810186                       # number of demand (read+write) MSHR miss ticks (Tick)
board.cache_hierarchy.clusters0.l2_cache.demandMshrMissLatency::processor.cores0.core.inst      1506159                       # number of demand (read+write) MSHR miss ticks (Tick)
board.cache_hierarchy.clusters0.l2_cache.demandMshrMissLatency::processor.cores0.core.data    507948818                       # number of demand (read+write) MSHR miss ticks (Tick)
board.cache_hierarchy.clusters0.l2_cache.demandMshrMissLatency::total    511265163                       # number of demand (read+write) MSHR miss ticks (Tick)
board.cache_hierarchy.clusters0.l2_cache.overallMshrMissLatency::cache_hierarchy.clusters0.l1d_cache.prefetcher      1810186                       # number of overall MSHR miss ticks (Tick)
board.cache_hierarchy.clusters0.l2_cache.overallMshrMissLatency::cache_hierarchy.clusters0.l2_cache.prefetcher     16385761                       # number of overall MSHR miss ticks (Tick)
board.cache_hierarchy.clusters0.l2_cache.overallMshrMissLatency::processor.cores0.core.inst      1506159                       # number of overall MSHR miss ticks (Tick)
board.cache_hierarchy.clusters0.l2_cache.overallMshrMissLatency::processor.cores0.core.data    507948818                       # number of overall MSHR miss ticks (Tick)
board.cache_hierarchy.clusters0.l2_cache.overallMshrMissLatency::total    527650924                       # number of overall MSHR miss ticks (Tick)
board.cache_hierarchy.clusters0.l2_cache.demandMshrMissRate::cache_hierarchy.clusters0.l1d_cache.prefetcher     0.078113                       # mshr miss ratio for demand accesses (Ratio)
board.cache_hierarchy.clusters0.l2_cache.demandMshrMissRate::processor.cores0.core.inst     0.563636                       # mshr miss ratio for demand accesses (Ratio)
board.cache_hierarchy.clusters0.l2_cache.demandMshrMissRate::processor.cores0.core.data     0.946916                       # mshr miss ratio for demand accesses (Ratio)
board.cache_hierarchy.clusters0.l2_cache.demandMshrMissRate::total     0.920769                       # mshr miss ratio for demand accesses (Ratio)
board.cache_hierarchy.clusters0.l2_cache.overallMshrMissRate::cache_hierarchy.clusters0.l1d_cache.prefetcher     0.078113                       # mshr miss ratio for overall accesses (Ratio)
board.cache_hierarchy.clusters0.l2_cache.overallMshrMissRate::cache_hierarchy.clusters0.l2_cache.prefetcher          inf                       # mshr miss ratio for overall accesses (Ratio)
board.cache_hierarchy.clusters0.l2_cache.overallMshrMissRate::processor.cores0.core.inst     0.563636                       # mshr miss ratio for overall accesses (Ratio)
board.cache_hierarchy.clusters0.l2_cache.overallMshrMissRate::processor.cores0.core.data     0.946916                       # mshr miss ratio for overall accesses (Ratio)
board.cache_hierarchy.clusters0.l2_cache.overallMshrMissRate::total     0.937721                       # mshr miss ratio for overall accesses (Ratio)
board.cache_hierarchy.clusters0.l2_cache.demandAvgMshrMissLatency::cache_hierarchy.clusters0.l1d_cache.prefetcher 17922.633663                       # average overall mshr miss latency ((Tick/Count))
board.cache_hierarchy.clusters0.l2_cache.demandAvgMshrMissLatency::processor.cores0.core.inst 48585.774194                       # average overall mshr miss latency ((Tick/Count))
board.cache_hierarchy.clusters0.l2_cache.demandAvgMshrMissLatency::processor.cores0.core.data 12644.664509                       # average overall mshr miss latency ((Tick/Count))
board.cache_hierarchy.clusters0.l2_cache.demandAvgMshrMissLatency::total 12685.536139                       # average overall mshr miss latency ((Tick/Count))
board.cache_hierarchy.clusters0.l2_cache.overallAvgMshrMissLatency::cache_hierarchy.clusters0.l1d_cache.prefetcher 17922.633663                       # average overall mshr miss latency ((Tick/Count))
board.cache_hierarchy.clusters0.l2_cache.overallAvgMshrMissLatency::cache_hierarchy.clusters0.l2_cache.prefetcher 22083.235849                       # average overall mshr miss latency ((Tick/Count))
board.cache_hierarchy.clusters0.l2_cache.overallAvgMshrMissLatency::processor.cores0.core.inst 48585.774194                       # average overall mshr miss latency ((Tick/Count))
board.cache_hierarchy.clusters0.l2_cache.overallAvgMshrMissLatency::processor.cores0.core.data 12644.664509                       # average overall mshr miss latency ((Tick/Count))
board.cache_hierarchy.clusters0.l2_cache.overallAvgMshrMissLatency::total 12855.425119                       # average overall mshr miss latency ((Tick/Count))
board.cache_hierarchy.clusters0.l2_cache.replacements         1098                       # number of replacements (Count)
board.cache_hierarchy.clusters0.l2_cache.HardPFReq.mshrMisses::cache_hierarchy.clusters0.l2_cache.prefetcher          742                       # number of HardPFReq MSHR misses (Count)
[...]
board.processor.cores1.core.commitStats0.committedInstType::SimdFloatAdd            0      0.00%     46.25% # Class of committed instruction. (Count)
board.processor.cores1.core.commitStats0.committedInstType::SimdFloatAlu            0      0.00%     46.25% # Class of committed instruction. (Count)
board.processor.cores1.core.commitStats0.committedInstType::SimdFloatCmp            0      0.00%     46.25% # Class of committed instruction. (Count)
board.processor.cores1.core.commitStats0.committedInstType::SimdFloatCvt            0      0.00%     46.25% # Class of committed instruction. (Count)
board.processor.cores1.core.commitStats0.committedInstType::SimdFloatDiv            0      0.00%     46.25% # Class of committed instruction. (Count)
board.processor.cores1.core.commitStats0.committedInstType::SimdFloatMisc            0      0.00%     46.25% # Class of committed instruction. (Count)
board.processor.cores1.core.commitStats0.committedInstType::SimdFloatMult            0      0.00%     46.25% # Class of committed instruction. (Count)
board.processor.cores1.core.commitStats0.committedInstType::SimdFloatMultAcc            0      0.00%     46.25% # Class of committed instruction. (Count)
board.processor.cores1.core.commitStats0.committedInstType::SimdFloatMatMultAcc            0      0.00%     46.25% # Class of committed instruction. (Count)
board.processor.cores1.core.commitStats0.committedInstType::SimdFloatSqrt            0      0.00%     46.25% # Class of committed instruction. (Count)
board.processor.cores1.core.commitStats0.committedInstType::SimdReduceAdd            0      0.00%     46.25% # Class of committed instruction. (Count)
board.processor.cores1.core.commitStats0.committedInstType::SimdReduceAlu            0      0.00%     46.25% # Class of committed instruction. (Count)
board.processor.cores1.core.commitStats0.committedInstType::SimdReduceCmp            0      0.00%     46.25% # Class of committed instruction. (Count)
board.processor.cores1.core.commitStats0.committedInstType::SimdFloatReduceAdd            0      0.00%     46.25% # Class of committed instruction. (Count)
board.processor.cores1.core.commitStats0.committedInstType::SimdFloatReduceCmp            0      0.00%     46.25% # Class of committed instruction. (Count)
board.processor.cores1.core.commitStats0.committedInstType::SimdAes            0      0.00%     46.25% # Class of committed instruction. (Count)
board.processor.cores1.core.commitStats0.committedInstType::SimdAesMix            0      0.00%     46.25% # Class of committed instruction. (Count)
board.processor.cores1.core.commitStats0.committedInstType::SimdSha1Hash            0      0.00%     46.25% # Class of committed instruction. (Count)
board.processor.cores1.core.commitStats0.committedInstType::SimdSha1Hash2            0      0.00%     46.25% # Class of committed instruction. (Count)
board.processor.cores1.core.commitStats0.committedInstType::SimdSha256Hash            0      0.00%     46.25% # Class of committed instruction. (Count)
board.processor.cores1.core.commitStats0.committedInstType::SimdSha256Hash2            0      0.00%     46.25% # Class of committed instruction. (Count)
board.processor.cores1.core.commitStats0.committedInstType::SimdShaSigma2            0      0.00%     46.25% # Class of committed instruction. (Count)
board.processor.cores1.core.commitStats0.committedInstType::SimdShaSigma3            0      0.00%     46.25% # Class of committed instruction. (Count)
board.processor.cores1.core.commitStats0.committedInstType::SimdSha3            0      0.00%     46.25% # Class of committed instruction. (Count)
board.processor.cores1.core.commitStats0.committedInstType::SimdSm4e            0      0.00%     46.25% # Class of committed instruction. (Count)
board.processor.cores1.core.commitStats0.committedInstType::SimdCrc            0      0.00%     46.25% # Class of committed instruction. (Count)
board.processor.cores1.core.commitStats0.committedInstType::SimdPredAlu            0      0.00%     46.25% # Class of committed instruction. (Count)
board.processor.cores1.core.commitStats0.committedInstType::SimdDotProd            0      0.00%     46.25% # Class of committed instruction. (Count)
board.processor.cores1.core.commitStats0.committedInstType::Matrix            0      0.00%     46.25% # Class of committed instruction. (Count)
board.processor.cores1.core.commitStats0.committedInstType::MatrixMov            0      0.00%     46.25% # Class of committed instruction. (Count)
board.processor.cores1.core.commitStats0.committedInstType::MatrixOP            0      0.00%     46.25% # Class of committed instruction. (Count)
board.processor.cores1.core.commitStats0.committedInstType::MemRead      1153076     40.59%     86.84% # Class of committed instruction. (Count)
board.processor.cores1.core.commitStats0.committedInstType::MemWrite       117592      4.14%     90.98% # Class of committed instruction. (Count)
board.processor.cores1.core.commitStats0.committedInstType::FloatMemRead       186523      6.57%     97.55% # Class of committed instruction. (Count)
board.processor.cores1.core.commitStats0.committedInstType::FloatMemWrite        69691      2.45%    100.00% # Class of committed instruction. (Count)
board.processor.cores1.core.commitStats0.committedInstType::InstPrefetch            0      0.00%    100.00% # Class of committed instruction. (Count)
board.processor.cores1.core.commitStats0.committedInstType::SimdUnitStrideLoad            0      0.00%    100.00% # Class of committed instruction. (Count)
board.processor.cores1.core.commitStats0.committedInstType::SimdUnitStrideStore            0      0.00%    100.00% # Class of committed instruction. (Count)
board.processor.cores1.core.commitStats0.committedInstType::SimdUnitStrideMaskLoad            0      0.00%    100.00% # Class of committed instruction. (Count)
board.processor.cores1.core.commitStats0.committedInstType::SimdUnitStrideMaskStore            0      0.00%    100.00% # Class of committed instruction. (Count)
board.processor.cores1.core.commitStats0.committedInstType::SimdStridedLoad            0      0.00%    100.00% # Class of committed instruction. (Count)
board.processor.cores1.core.commitStats0.committedInstType::SimdStridedStore            0      0.00%    100.00% # Class of committed instruction. (Count)
board.processor.cores1.core.commitStats0.committedInstType::SimdIndexedLoad            0      0.00%    100.00% # Class of committed instruction. (Count)
board.processor.cores1.core.commitStats0.committedInstType::SimdIndexedStore            0      0.00%    100.00% # Class of committed instruction. (Count)
board.processor.cores1.core.commitStats0.committedInstType::SimdWholeRegisterLoad            0      0.00%    100.00% # Class of committed instruction. (Count)
board.processor.cores1.core.commitStats0.committedInstType::SimdWholeRegisterStore            0      0.00%    100.00% # Class of committed instruction. (Count)
board.processor.cores1.core.commitStats0.committedInstType::SimdUnitStrideFaultOnlyFirstLoad            0      0.00%    100.00% # Class of committed instruction. (Count)
board.processor.cores1.core.commitStats0.committedInstType::SimdUnitStrideSegmentedLoad            0      0.00%    100.00% # Class of committed instruction. (Count)
board.processor.cores1.core.commitStats0.committedInstType::SimdUnitStrideSegmentedStore            0      0.00%    100.00% # Class of committed instruction. (Count)
board.processor.cores1.core.commitStats0.committedInstType::SimdUnitStrideSegmentedFaultOnlyFirstLoad            0      0.00%    100.00% # Class of committed instruction. (Count)
board.processor.cores1.core.commitStats0.committedInstType::SimdStrideSegmentedLoad            0      0.00%    100.00% # Class of committed instruction. (Count)
board.processor.cores1.core.commitStats0.committedInstType::SimdStrideSegmentedStore            0      0.00%    100.00% # Class of committed instruction. (Count)
board.processor.cores1.core.commitStats0.committedInstType::SimdExt            0      0.00%    100.00% # Class of committed instruction. (Count)
board.processor.cores1.core.commitStats0.committedInstType::SimdFloatExt            0      0.00%    100.00% # Class of committed instruction. (Count)
board.processor.cores1.core.commitStats0.committedInstType::SimdConfig            0      0.00%    100.00% # Class of committed instruction. (Count)
board.processor.cores1.core.commitStats0.committedInstType::SimdBf16Add            0      0.00%    100.00% # Class of committed instruction. (Count)
board.processor.cores1.core.commitStats0.committedInstType::SimdBf16Cmp            0      0.00%    100.00% # Class of committed instruction. (Count)
board.processor.cores1.core.commitStats0.committedInstType::SimdBf16Cvt            0      0.00%    100.00% # Class of committed instruction. (Count)
board.processor.cores1.core.commitStats0.committedInstType::SimdBf16DotProd            0      0.00%    100.00% # Class of committed instruction. (Count)
board.processor.cores1.core.commitStats0.committedInstType::SimdBf16MatMultAcc            0      0.00%    100.00% # Class of committed instruction. (Count)
board.processor.cores1.core.commitStats0.committedInstType::SimdBf16Mult            0      0.00%    100.00% # Class of committed instruction. (Count)
board.processor.cores1.core.commitStats0.committedInstType::SimdBf16MultAcc            0      0.00%    100.00% # Class of committed instruction. (Count)
board.processor.cores1.core.commitStats0.committedInstType::Bf16Cvt            0      0.00%    100.00% # Class of committed instruction. (Count)
board.processor.cores1.core.commitStats0.committedInstType::System            0      0.00%    100.00% # Class of committed instruction. (Count)
board.processor.cores1.core.commitStats0.committedInstType::total      2840579                       # Class of committed instruction. (Count)
board.processor.cores1.core.commitStats0.committedControl::IsControl       209771                       # Class of control type instructions committed (Count)
board.processor.cores1.core.commitStats0.committedControl::IsDirectControl       189635                       # Class of control type instructions committed (Count)
board.processor.cores1.core.commitStats0.committedControl::IsIndirectControl        20136                       # Class of control type instructions committed (Count)
board.processor.cores1.core.commitStats0.committedControl::IsCondControl       111532                       # Class of control type instructions committed (Count)
board.processor.cores1.core.commitStats0.committedControl::IsUncondControl        98239                       # Class of control type instructions committed (Count)
board.processor.cores1.core.commitStats0.committedControl::IsCall        19934                       # Class of control type instructions committed (Count)
board.processor.cores1.core.commitStats0.committedControl::IsReturn        19935                       # Class of control type instructions committed (Count)
board.processor.cores1.core.commitStats0.functionCalls        19934                       # Number of function calls committed (Count)
board.processor.cores1.core.commitStats0.numCallsReturns        39869                       # Number of function calls and returns committed (Count)
board.processor.cores1.core.executeStats0.numInsts      2839775                       # Number of executed instructions (Count)
board.processor.cores1.core.executeStats0.numNop            0                       # Number of nop insts executed (Count)
board.processor.cores1.core.executeStats0.numBranches       209771                       # Number of branches executed (Count)
board.processor.cores1.core.executeStats0.numLoadInsts      1339197                       # Number of load instructions executed (Count)
board.processor.cores1.core.executeStats0.numStoreInsts       187685                       # Number of stores executed (Count)
board.processor.cores1.core.executeStats0.instRate     0.617557                       # Inst execution rate ((Count/Cycle))
board.processor.cores1.core.executeStats0.numFpAluAccesses       388441                       # Number of float alu accesses (Count)
board.processor.cores1.core.executeStats0.numFpRegReads       318555                       # Number of times the floating registers were read (Count)
board.processor.cores1.core.executeStats0.numFpRegWrites       318555                       # Number of times the floating registers were written (Count)
board.processor.cores1.core.executeStats0.numIntAluAccesses      2667348                       # Number of integer alu accesses (Count)
board.processor.cores1.core.executeStats0.numIntRegReads      3095719                       # Number of times the integer registers were read (Count)
board.processor.cores1.core.executeStats0.numIntRegWrites      2123044                       # Number of times the integer registers were written (Count)
board.processor.cores1.core.executeStats0.numMemRefs      1526882                       # Number of memory refs (Count)
board.processor.cores1.core.executeStats0.numVecAluAccesses            0                       # Number of vector alu accesses (Count)
board.processor.cores1.core.executeStats0.numDiscardedOps        11146                       # Number of ops (including micro ops) which were discarded before commit (Count)
board.processor.cores1.core.fetch2.totalInstructions      2910223                       # Total number of instructions successfully decoded (Count)
board.processor.cores1.core.fetch2.intInstructions      1148083                       # Number of integer instructions successfully decoded (Count)
board.processor.cores1.core.fetch2.fpInstructions       136911                       # Number of floating point instructions successfully decoded (Count)
board.processor.cores1.core.fetch2.vecInstructions            0                       # Number of SIMD instructions successfully decoded (Count)
board.processor.cores1.core.fetch2.loadInstructions      1374572                       # Number of memory load instructions successfully decoded (Count)
board.processor.cores1.core.fetch2.storeInstructions       190667                       # Number of memory store instructions successfully decoded (Count)
board.processor.cores1.core.fetch2.amoInstructions            0                       # Number of memory atomic instructions successfully decoded (Count)
board.processor.cores1.core.fetchStats0.numInsts      2910223                       # Number of instructions fetched (thread level) (Count)
board.processor.cores1.core.fetchStats0.numOps            0                       # Number of ops (including micro ops) fetched (thread level) (Count)
board.processor.cores1.core.fetchStats0.fetchRate     0.632877                       # Number of inst fetches per cycle ((Count/Cycle))
board.processor.cores1.core.fetchStats0.numBranches       211579                       # Number of branches fetched (Count)
board.processor.cores1.core.fetchStats0.branchRate     0.046011                       # Number of branch fetches per cycle (Ratio)
board.processor.cores1.core.fetchStats0.numFetchSuspends            0                       # Number of times Execute suspended instruction fetching (Count)
board.processor.cores1.core.mmu.dtb.readHits            0                       # read hits (Count)
board.processor.cores1.core.mmu.dtb.readMisses            0                       # read misses (Count)
board.processor.cores1.core.mmu.dtb.readAccesses            0                       # read accesses (Count)
board.processor.cores1.core.mmu.dtb.writeHits            0                       # write hits (Count)
board.processor.cores1.core.mmu.dtb.writeMisses            0                       # write misses (Count)
board.processor.cores1.core.mmu.dtb.writeAccesses            0                       # write accesses (Count)
board.processor.cores1.core.mmu.dtb.hits            0                       # Total TLB (read and write) hits (Count)
board.processor.cores1.core.mmu.dtb.misses            0                       # Total TLB (read and write) misses (Count)
board.processor.cores1.core.mmu.dtb.accesses            0                       # Total TLB (read and write) accesses (Count)
board.processor.cores1.core.mmu.dtb.walker.num_4kb_walks            0                       # Completed page walks with 4KB pages (Count)
board.processor.cores1.core.mmu.dtb.walker.num_64kb_walks            0                       # Completed page walks with 64KB pages (Count)
board.processor.cores1.core.mmu.dtb.walker.num_2mb_walks            0                       # Completed page walks with 2MB pages (Count)
board.processor.cores1.core.mmu.dtb.walker.power_state.pwrStateResidencyTicks::UNDEFINED  11841850962                       # Cumulative time (in ticks) in various power states (Tick)
board.processor.cores1.core.mmu.itb.readHits            0                       # read hits (Count)
board.processor.cores1.core.mmu.itb.readMisses            0                       # read misses (Count)
board.processor.cores1.core.mmu.itb.readAccesses            0                       # read accesses (Count)
board.processor.cores1.core.mmu.itb.writeHits            0                       # write hits (Count)
board.processor.cores1.core.mmu.itb.writeMisses            0                       # write misses (Count)
board.processor.cores1.core.mmu.itb.writeAccesses            0                       # write accesses (Count)
board.processor.cores1.core.mmu.itb.hits            0                       # Total TLB (read and write) hits (Count)
board.processor.cores1.core.mmu.itb.misses            0                       # Total TLB (read and write) misses (Count)
board.processor.cores1.core.mmu.itb.accesses            0                       # Total TLB (read and write) accesses (Count)
board.processor.cores1.core.mmu.itb.walker.num_4kb_walks            0                       # Completed page walks with 4KB pages (Count)
board.processor.cores1.core.mmu.itb.walker.num_64kb_walks            0                       # Completed page walks with 64KB pages (Count)
board.processor.cores1.core.mmu.itb.walker.num_2mb_walks            0                       # Completed page walks with 2MB pages (Count)
board.processor.cores1.core.mmu.itb.walker.power_state.pwrStateResidencyTicks::UNDEFINED  11841850962                       # Cumulative time (in ticks) in various power states (Tick)
board.processor.cores1.core.power_state.pwrStateResidencyTicks::ON  11841850962                       # Cumulative time (in ticks) in various power states (Tick)
board.processor.cores1.core.thread_0.numInsts      2839775                       # Number of Instructions committed (Count)
board.processor.cores1.core.thread_0.numOps      2840579                       # Number of Ops committed (Count)
board.processor.cores1.core.thread_0.numMemRefs      1526882                       # Number of Memory References (Count)
board.workload.inst.arm                             0                       # number of arm instructions executed (Count)
board.workload.inst.quiesce                         0                       # number of quiesce instructions executed (Count)
board.processor.cores0.core.idleCycles         968851                       # Total number of cycles that the object has spent stopped (Unspecified)
board.processor.cores0.core.tickCycles        3629550                       # Number of cycles that the object actually ticked (Unspecified)
board.processor.cores1.core.idleCycles         948315                       # Total number of cycles that the object has spent stopped (Unspecified)
board.processor.cores1.core.tickCycles        3650086                       # Number of cycles that the object actually ticked (Unspecified)

---------- End Simulation Statistics   ----------
