
---------- Begin Simulation Statistics ----------
simSeconds                                   0.000541                       # Number of seconds simulated (Second)
simTicks                                    540973818                       # Number of ticks simulated (Tick)
finalTick                                  2064576024                       # Number of ticks from beginning of simulation (restored from checkpoints and never reset) (Tick)
simFreq                                  1000000000000                       # The number of ticks per simulated second ((Tick/Second))
hostSeconds                                      5.85                       # Real time elapsed on the host (Second)
hostTickRate                                 92490347                       # The number of ticks simulated per host second (ticks/s) ((Tick/Second))
hostMemory                                    4934448                       # Number of bytes of host memory used (Byte)
simInsts                                      1772890                       # Number of instructions simulated (Count)
simOps                                        1772943                       # Number of ops (including micro ops) simulated (Count)
hostInstRate                                   303102                       # Simulator instruction rate (inst/s) ((Count/Second))
hostOpRate                                     303110                       # Simulator op (including micro ops) rate (op/s) ((Count/Second))
board.cache_hierarchy.ruby_system.delayHistogram::bucket_size            4                       # delay histogram for all message (Unspecified)
board.cache_hierarchy.ruby_system.delayHistogram::max_bucket           39                       # delay histogram for all message (Unspecified)
board.cache_hierarchy.ruby_system.delayHistogram::samples        25420                       # delay histogram for all message (Unspecified)
board.cache_hierarchy.ruby_system.delayHistogram::mean     0.218253                       # delay histogram for all message (Unspecified)
board.cache_hierarchy.ruby_system.delayHistogram::stdev     1.331263                       # delay histogram for all message (Unspecified)
board.cache_hierarchy.ruby_system.delayHistogram |       24781     97.49%     97.49% |          28      0.11%     97.60% |         598      2.35%     99.95% |           4      0.02%     99.96% |           5      0.02%     99.98% |           2      0.01%     99.99% |           0      0.00%     99.99% |           0      0.00%     99.99% |           0      0.00%     99.99% |           2      0.01%    100.00% # delay histogram for all message (Unspecified)
board.cache_hierarchy.ruby_system.delayHistogram::total        25420                       # delay histogram for all message (Unspecified)
board.cache_hierarchy.ruby_system.m_outstandReqHistSeqr::bucket_size            1                       (Unspecified)
board.cache_hierarchy.ruby_system.m_outstandReqHistSeqr::max_bucket            9                       (Unspecified)
board.cache_hierarchy.ruby_system.m_outstandReqHistSeqr::samples      2951094                       (Unspecified)
board.cache_hierarchy.ruby_system.m_outstandReqHistSeqr::mean            1                       (Unspecified)
board.cache_hierarchy.ruby_system.m_outstandReqHistSeqr::gmean            1                       (Unspecified)
board.cache_hierarchy.ruby_system.m_outstandReqHistSeqr |           0      0.00%      0.00% |     2951094    100.00%    100.00% |           0      0.00%    100.00% |           0      0.00%    100.00% |           0      0.00%    100.00% |           0      0.00%    100.00% |           0      0.00%    100.00% |           0      0.00%    100.00% |           0      0.00%    100.00% |           0      0.00%    100.00% (Unspecified)
board.cache_hierarchy.ruby_system.m_outstandReqHistSeqr::total      2951094                       (Unspecified)
board.cache_hierarchy.ruby_system.m_latencyHistSeqr::bucket_size          128                       (Unspecified)
board.cache_hierarchy.ruby_system.m_latencyHistSeqr::max_bucket         1279                       (Unspecified)
board.cache_hierarchy.ruby_system.m_latencyHistSeqr::samples      2951091                       (Unspecified)
board.cache_hierarchy.ruby_system.m_latencyHistSeqr::mean     1.131460                       (Unspecified)
board.cache_hierarchy.ruby_system.m_latencyHistSeqr::gmean     1.006130                       (Unspecified)
board.cache_hierarchy.ruby_system.m_latencyHistSeqr::stdev     5.442265                       (Unspecified)
board.cache_hierarchy.ruby_system.m_latencyHistSeqr |     2949155     99.93%     99.93% |        1810      0.06%    100.00% |          23      0.00%    100.00% |          50      0.00%    100.00% |          22      0.00%    100.00% |           3      0.00%    100.00% |          15      0.00%    100.00% |          13      0.00%    100.00% |           0      0.00%    100.00% |           0      0.00%    100.00% (Unspecified)
board.cache_hierarchy.ruby_system.m_latencyHistSeqr::total      2951091                       (Unspecified)
board.cache_hierarchy.ruby_system.m_hitLatencyHistSeqr::bucket_size            1                       (Unspecified)
board.cache_hierarchy.ruby_system.m_hitLatencyHistSeqr::max_bucket            9                       (Unspecified)
board.cache_hierarchy.ruby_system.m_hitLatencyHistSeqr::samples      2946034                       (Unspecified)
board.cache_hierarchy.ruby_system.m_hitLatencyHistSeqr::mean            1                       (Unspecified)
board.cache_hierarchy.ruby_system.m_hitLatencyHistSeqr::gmean            1                       (Unspecified)
board.cache_hierarchy.ruby_system.m_hitLatencyHistSeqr |           0      0.00%      0.00% |     2946034    100.00%    100.00% |           0      0.00%    100.00% |           0      0.00%    100.00% |           0      0.00%    100.00% |           0      0.00%    100.00% |           0      0.00%    100.00% |           0      0.00%    100.00% |           0      0.00%    100.00% |           0      0.00%    100.00% (Unspecified)
board.cache_hierarchy.ruby_system.m_hitLatencyHistSeqr::total      2946034                       (Unspecified)
board.cache_hierarchy.ruby_system.m_missLatencyHistSeqr::bucket_size          128                       (Unspecified)
board.cache_hierarchy.ruby_system.m_missLatencyHistSeqr::max_bucket         1279                       (Unspecified)
board.cache_hierarchy.ruby_system.m_missLatencyHistSeqr::samples         5057                       (Unspecified)
board.cache_hierarchy.ruby_system.m_missLatencyHistSeqr::mean    77.715246                       (Unspecified)
board.cache_hierarchy.ruby_system.m_missLatencyHistSeqr::gmean    35.378870                       (Unspecified)
board.cache_hierarchy.ruby_system.m_missLatencyHistSeqr::stdev   106.823675                       (Unspecified)
board.cache_hierarchy.ruby_system.m_missLatencyHistSeqr |        3121     61.72%     61.72% |        1810     35.79%     97.51% |          23      0.45%     97.96% |          50      0.99%     98.95% |          22      0.44%     99.39% |           3      0.06%     99.45% |          15      0.30%     99.74% |          13      0.26%    100.00% |           0      0.00%    100.00% |           0      0.00%    100.00% (Unspecified)
board.cache_hierarchy.ruby_system.m_missLatencyHistSeqr::total         5057                       (Unspecified)
board.cache_hierarchy.ruby_system.delayVCHist.vnet_0::bucket_size            4                       # delay histogram for vnet_0 (Unspecified)
board.cache_hierarchy.ruby_system.delayVCHist.vnet_0::max_bucket           39                       # delay histogram for vnet_0 (Unspecified)
board.cache_hierarchy.ruby_system.delayVCHist.vnet_0::samples        12194                       # delay histogram for vnet_0 (Unspecified)
board.cache_hierarchy.ruby_system.delayVCHist.vnet_0::mean     0.427423                       # delay histogram for vnet_0 (Unspecified)
board.cache_hierarchy.ruby_system.delayVCHist.vnet_0::stdev     1.881773                       # delay histogram for vnet_0 (Unspecified)
board.cache_hierarchy.ruby_system.delayVCHist.vnet_0 |       11563     94.83%     94.83% |          21      0.17%     95.00% |         597      4.90%     99.89% |           4      0.03%     99.93% |           5      0.04%     99.97% |           2      0.02%     99.98% |           0      0.00%     99.98% |           0      0.00%     99.98% |           0      0.00%     99.98% |           2      0.02%    100.00% # delay histogram for vnet_0 (Unspecified)
board.cache_hierarchy.ruby_system.delayVCHist.vnet_0::total        12194                       # delay histogram for vnet_0 (Unspecified)
board.cache_hierarchy.ruby_system.delayVCHist.vnet_1::bucket_size            1                       # delay histogram for vnet_1 (Unspecified)
board.cache_hierarchy.ruby_system.delayVCHist.vnet_1::max_bucket            9                       # delay histogram for vnet_1 (Unspecified)
board.cache_hierarchy.ruby_system.delayVCHist.vnet_1::samples        12409                       # delay histogram for vnet_1 (Unspecified)
board.cache_hierarchy.ruby_system.delayVCHist.vnet_1::mean     0.027077                       # delay histogram for vnet_1 (Unspecified)
board.cache_hierarchy.ruby_system.delayVCHist.vnet_1::stdev     0.261256                       # delay histogram for vnet_1 (Unspecified)
board.cache_hierarchy.ruby_system.delayVCHist.vnet_1 |       12256     98.77%     98.77% |           0      0.00%     98.77% |         145      1.17%     99.94% |           0      0.00%     99.94% |           2      0.02%     99.95% |           0      0.00%     99.95% |           5      0.04%     99.99% |           0      0.00%     99.99% |           1      0.01%    100.00% |           0      0.00%    100.00% # delay histogram for vnet_1 (Unspecified)
board.cache_hierarchy.ruby_system.delayVCHist.vnet_1::total        12409                       # delay histogram for vnet_1 (Unspecified)
board.cache_hierarchy.ruby_system.delayVCHist.vnet_2::bucket_size            1                       # delay histogram for vnet_2 (Unspecified)
board.cache_hierarchy.ruby_system.delayVCHist.vnet_2::max_bucket            9                       # delay histogram for vnet_2 (Unspecified)
board.cache_hierarchy.ruby_system.delayVCHist.vnet_2::samples          817                       # delay histogram for vnet_2 (Unspecified)
board.cache_hierarchy.ruby_system.delayVCHist.vnet_2 |         817    100.00%    100.00% |           0      0.00%    100.00% |           0      0.00%    100.00% |           0      0.00%    100.00% |           0      0.00%    100.00% |           0      0.00%    100.00% |           0      0.00%    100.00% |           0      0.00%    100.00% |           0      0.00%    100.00% |           0      0.00%    100.00% # delay histogram for vnet_2 (Unspecified)
board.cache_hierarchy.ruby_system.delayVCHist.vnet_2::total          817                       # delay histogram for vnet_2 (Unspecified)
board.cache_hierarchy.ruby_system.Directory_Controller.Fetch         1933      0.00%      0.00% (Unspecified)
board.cache_hierarchy.ruby_system.Directory_Controller.Data         1045      0.00%      0.00% (Unspecified)
board.cache_hierarchy.ruby_system.Directory_Controller.Memory_Data         1933      0.00%      0.00% (Unspecified)
board.cache_hierarchy.ruby_system.Directory_Controller.Memory_Ack         1045      0.00%      0.00% (Unspecified)
board.cache_hierarchy.ruby_system.Directory_Controller.CleanReplacement          888      0.00%      0.00% (Unspecified)
board.cache_hierarchy.ruby_system.Directory_Controller.I.Fetch         1933      0.00%      0.00% (Unspecified)
board.cache_hierarchy.ruby_system.Directory_Controller.M.Data         1045      0.00%      0.00% (Unspecified)
board.cache_hierarchy.ruby_system.Directory_Controller.M.CleanReplacement          888      0.00%      0.00% (Unspecified)
board.cache_hierarchy.ruby_system.Directory_Controller.IM.Memory_Data         1933      0.00%      0.00% (Unspecified)
board.cache_hierarchy.ruby_system.Directory_Controller.MI.Memory_Ack         1045      0.00%      0.00% (Unspecified)
board.cache_hierarchy.ruby_system.L1Cache_Controller.Load |      182715     24.06%     24.06% |      187561     24.70%     48.75% |      194694     25.63%     74.39% |      194534     25.61%    100.00% (Unspecified)
board.cache_hierarchy.ruby_system.L1Cache_Controller.Load::total       759504                       (Unspecified)
board.cache_hierarchy.ruby_system.L1Cache_Controller.Ifetch |      486872     23.77%     23.77% |      502901     24.56%     48.33% |      529395     25.85%     74.18% |      528813     25.82%    100.00% (Unspecified)
board.cache_hierarchy.ruby_system.L1Cache_Controller.Ifetch::total      2047981                       (Unspecified)
board.cache_hierarchy.ruby_system.L1Cache_Controller.Store |       34409     23.96%     23.96% |       35051     24.41%     48.37% |       37089     25.83%     74.20% |       37044     25.80%    100.00% (Unspecified)
board.cache_hierarchy.ruby_system.L1Cache_Controller.Store::total       143593                       (Unspecified)
board.cache_hierarchy.ruby_system.L1Cache_Controller.Inv |         413     56.81%     56.81% |         113     15.54%     72.35% |          96     13.20%     85.56% |         105     14.44%    100.00% (Unspecified)
board.cache_hierarchy.ruby_system.L1Cache_Controller.Inv::total          727                       (Unspecified)
board.cache_hierarchy.ruby_system.L1Cache_Controller.L1_Replacement |        1340     43.32%     43.32% |         585     18.91%     62.24% |         585     18.91%     81.15% |         583     18.85%    100.00% (Unspecified)
board.cache_hierarchy.ruby_system.L1Cache_Controller.L1_Replacement::total         3093                       (Unspecified)
board.cache_hierarchy.ruby_system.L1Cache_Controller.Fwd_GETX |          20     66.67%     66.67% |           4     13.33%     80.00% |           5     16.67%     96.67% |           1      3.33%    100.00% (Unspecified)
board.cache_hierarchy.ruby_system.L1Cache_Controller.Fwd_GETX::total           30                       (Unspecified)
board.cache_hierarchy.ruby_system.L1Cache_Controller.Fwd_GETS |          47     78.33%     78.33% |           8     13.33%     91.67% |           0      0.00%     91.67% |           5      8.33%    100.00% (Unspecified)
board.cache_hierarchy.ruby_system.L1Cache_Controller.Fwd_GETS::total           60                       (Unspecified)
board.cache_hierarchy.ruby_system.L1Cache_Controller.Data_Exclusive |        1069     25.67%     25.67% |        1038     24.92%     50.59% |        1031     24.75%     75.34% |        1027     24.66%    100.00% (Unspecified)
board.cache_hierarchy.ruby_system.L1Cache_Controller.Data_Exclusive::total         4165                       (Unspecified)
board.cache_hierarchy.ruby_system.L1Cache_Controller.DataS_fromL1 |           1      1.67%      1.67% |          26     43.33%     45.00% |          19     31.67%     76.67% |          14     23.33%    100.00% (Unspecified)
board.cache_hierarchy.ruby_system.L1Cache_Controller.DataS_fromL1::total           60                       (Unspecified)
board.cache_hierarchy.ruby_system.L1Cache_Controller.Data_all_Acks |         352     42.98%     42.98% |         144     17.58%     60.56% |         159     19.41%     79.98% |         164     20.02%    100.00% (Unspecified)
board.cache_hierarchy.ruby_system.L1Cache_Controller.Data_all_Acks::total          819                       (Unspecified)
board.cache_hierarchy.ruby_system.L1Cache_Controller.Ack |           8     47.06%     47.06% |           2     11.76%     58.82% |           2     11.76%     70.59% |           5     29.41%    100.00% (Unspecified)
board.cache_hierarchy.ruby_system.L1Cache_Controller.Ack::total           17                       (Unspecified)
board.cache_hierarchy.ruby_system.L1Cache_Controller.Ack_all |           4     36.36%     36.36% |           2     18.18%     54.55% |           2     18.18%     72.73% |           3     27.27%    100.00% (Unspecified)
board.cache_hierarchy.ruby_system.L1Cache_Controller.Ack_all::total           11                       (Unspecified)
board.cache_hierarchy.ruby_system.L1Cache_Controller.WB_Ack |        1070     39.64%     39.64% |         535     19.82%     59.47% |         554     20.53%     79.99% |         540     20.01%    100.00% (Unspecified)
board.cache_hierarchy.ruby_system.L1Cache_Controller.WB_Ack::total         2699                       (Unspecified)
board.cache_hierarchy.ruby_system.L1Cache_Controller.Load_Linked |          13    100.00%    100.00% |           0      0.00%    100.00% |           0      0.00%    100.00% |           0      0.00%    100.00% (Unspecified)
board.cache_hierarchy.ruby_system.L1Cache_Controller.Load_Linked::total           13                       (Unspecified)
board.cache_hierarchy.ruby_system.L1Cache_Controller.LLSC_Data_all_Acks |           2    100.00%    100.00% |           0      0.00%    100.00% |           0      0.00%    100.00% |           0      0.00%    100.00% (Unspecified)
board.cache_hierarchy.ruby_system.L1Cache_Controller.LLSC_Data_all_Acks::total            2                       (Unspecified)
board.cache_hierarchy.ruby_system.L1Cache_Controller.LLSC_Timeout |          13    100.00%    100.00% |           0      0.00%    100.00% |           0      0.00%    100.00% |           0      0.00%    100.00% (Unspecified)
board.cache_hierarchy.ruby_system.L1Cache_Controller.LLSC_Timeout::total           13                       (Unspecified)
board.cache_hierarchy.ruby_system.L1Cache_Controller.NP.Load |        1068     25.05%     25.05% |        1066     25.00%     50.05% |        1066     25.00%     75.05% |        1064     24.95%    100.00% (Unspecified)
board.cache_hierarchy.ruby_system.L1Cache_Controller.NP.Load::total         4264                       (Unspecified)
board.cache_hierarchy.ruby_system.L1Cache_Controller.NP.Ifetch |         215     41.99%     41.99% |          98     19.14%     61.13% |          98     19.14%     80.27% |         101     19.73%    100.00% (Unspecified)
board.cache_hierarchy.ruby_system.L1Cache_Controller.NP.Ifetch::total          512                       (Unspecified)
board.cache_hierarchy.ruby_system.L1Cache_Controller.NP.Store |         104     52.79%     52.79% |          31     15.74%     68.53% |          31     15.74%     84.26% |          31     15.74%    100.00% (Unspecified)
board.cache_hierarchy.ruby_system.L1Cache_Controller.NP.Store::total          197                       (Unspecified)
board.cache_hierarchy.ruby_system.L1Cache_Controller.NP.Inv |          76     60.80%     60.80% |          18     14.40%     75.20% |          17     13.60%     88.80% |          14     11.20%    100.00% (Unspecified)
board.cache_hierarchy.ruby_system.L1Cache_Controller.NP.Inv::total          125                       (Unspecified)
board.cache_hierarchy.ruby_system.L1Cache_Controller.NP.Load_Linked |           2    100.00%    100.00% |           0      0.00%    100.00% |           0      0.00%    100.00% |           0      0.00%    100.00% (Unspecified)
board.cache_hierarchy.ruby_system.L1Cache_Controller.NP.Load_Linked::total            2                       (Unspecified)
board.cache_hierarchy.ruby_system.L1Cache_Controller.I.Load |           6     30.00%     30.00% |           5     25.00%     55.00% |           6     30.00%     85.00% |           3     15.00%    100.00% (Unspecified)
board.cache_hierarchy.ruby_system.L1Cache_Controller.I.Load::total           20                       (Unspecified)
board.cache_hierarchy.ruby_system.L1Cache_Controller.I.Ifetch |          28     58.33%     58.33% |           7     14.58%     72.92% |           7     14.58%     87.50% |           6     12.50%    100.00% (Unspecified)
board.cache_hierarchy.ruby_system.L1Cache_Controller.I.Ifetch::total           48                       (Unspecified)
board.cache_hierarchy.ruby_system.L1Cache_Controller.I.Store |           1     33.33%     33.33% |           1     33.33%     66.67% |           1     33.33%    100.00% |           0      0.00%    100.00% (Unspecified)
board.cache_hierarchy.ruby_system.L1Cache_Controller.I.Store::total            3                       (Unspecified)
board.cache_hierarchy.ruby_system.L1Cache_Controller.I.L1_Replacement |         187     79.24%     79.24% |          24     10.17%     89.41% |           6      2.54%     91.95% |          19      8.05%    100.00% (Unspecified)
board.cache_hierarchy.ruby_system.L1Cache_Controller.I.L1_Replacement::total          236                       (Unspecified)
board.cache_hierarchy.ruby_system.L1Cache_Controller.S.Load |       16529     23.33%     23.33% |       17422     24.59%     47.91% |       18460     26.05%     73.96% |       18451     26.04%    100.00% (Unspecified)
board.cache_hierarchy.ruby_system.L1Cache_Controller.S.Load::total        70862                       (Unspecified)
board.cache_hierarchy.ruby_system.L1Cache_Controller.S.Ifetch |      486629     23.77%     23.77% |      502796     24.56%     48.33% |      529290     25.85%     74.18% |      528706     25.82%    100.00% (Unspecified)
board.cache_hierarchy.ruby_system.L1Cache_Controller.S.Ifetch::total      2047421                       (Unspecified)
board.cache_hierarchy.ruby_system.L1Cache_Controller.S.Store |           4     36.36%     36.36% |           2     18.18%     54.55% |           2     18.18%     72.73% |           3     27.27%    100.00% (Unspecified)
board.cache_hierarchy.ruby_system.L1Cache_Controller.S.Store::total           11                       (Unspecified)
board.cache_hierarchy.ruby_system.L1Cache_Controller.S.Inv |         286     57.09%     57.09% |          72     14.37%     71.46% |          73     14.57%     86.03% |          70     13.97%    100.00% (Unspecified)
board.cache_hierarchy.ruby_system.L1Cache_Controller.S.Inv::total          501                       (Unspecified)
board.cache_hierarchy.ruby_system.L1Cache_Controller.S.L1_Replacement |          83     52.53%     52.53% |          26     16.46%     68.99% |          25     15.82%     84.81% |          24     15.19%    100.00% (Unspecified)
board.cache_hierarchy.ruby_system.L1Cache_Controller.S.L1_Replacement::total          158                       (Unspecified)
board.cache_hierarchy.ruby_system.L1Cache_Controller.E.Load |       29655     39.11%     39.11% |       15380     20.28%     59.39% |       15452     20.38%     79.76% |       15347     20.24%    100.00% (Unspecified)
board.cache_hierarchy.ruby_system.L1Cache_Controller.E.Load::total        75834                       (Unspecified)
board.cache_hierarchy.ruby_system.L1Cache_Controller.E.Store |          18     72.00%     72.00% |           2      8.00%     80.00% |           3     12.00%     92.00% |           2      8.00%    100.00% (Unspecified)
board.cache_hierarchy.ruby_system.L1Cache_Controller.E.Store::total           25                       (Unspecified)
board.cache_hierarchy.ruby_system.L1Cache_Controller.E.Inv |          39     58.21%     58.21% |          13     19.40%     77.61% |           0      0.00%     77.61% |          15     22.39%    100.00% (Unspecified)
board.cache_hierarchy.ruby_system.L1Cache_Controller.E.Inv::total           67                       (Unspecified)
board.cache_hierarchy.ruby_system.L1Cache_Controller.E.L1_Replacement |         546     25.80%     25.80% |         518     24.48%     50.28% |         533     25.19%     75.47% |         519     24.53%    100.00% (Unspecified)
board.cache_hierarchy.ruby_system.L1Cache_Controller.E.L1_Replacement::total         2116                       (Unspecified)
board.cache_hierarchy.ruby_system.L1Cache_Controller.E.Fwd_GETS |          11     47.83%     47.83% |           8     34.78%     82.61% |           0      0.00%     82.61% |           4     17.39%    100.00% (Unspecified)
board.cache_hierarchy.ruby_system.L1Cache_Controller.E.Fwd_GETS::total           23                       (Unspecified)
board.cache_hierarchy.ruby_system.L1Cache_Controller.E.Load_Linked |           1    100.00%    100.00% |           0      0.00%    100.00% |           0      0.00%    100.00% |           0      0.00%    100.00% (Unspecified)
board.cache_hierarchy.ruby_system.L1Cache_Controller.E.Load_Linked::total            1                       (Unspecified)
board.cache_hierarchy.ruby_system.L1Cache_Controller.M.Load |      135457     22.26%     22.26% |      153688     25.26%     47.52% |      159710     26.25%     73.76% |      159669     26.24%    100.00% (Unspecified)
board.cache_hierarchy.ruby_system.L1Cache_Controller.M.Load::total       608524                       (Unspecified)
board.cache_hierarchy.ruby_system.L1Cache_Controller.M.Store |       34270     23.91%     23.91% |       35015     24.43%     48.33% |       37052     25.85%     74.18% |       37008     25.82%    100.00% (Unspecified)
board.cache_hierarchy.ruby_system.L1Cache_Controller.M.Store::total       143345                       (Unspecified)
board.cache_hierarchy.ruby_system.L1Cache_Controller.M.Inv |          12     35.29%     35.29% |          10     29.41%     64.71% |           6     17.65%     82.35% |           6     17.65%    100.00% (Unspecified)
board.cache_hierarchy.ruby_system.L1Cache_Controller.M.Inv::total           34                       (Unspecified)
board.cache_hierarchy.ruby_system.L1Cache_Controller.M.L1_Replacement |         524     89.88%     89.88% |          17      2.92%     92.80% |          21      3.60%     96.40% |          21      3.60%    100.00% (Unspecified)
board.cache_hierarchy.ruby_system.L1Cache_Controller.M.L1_Replacement::total          583                       (Unspecified)
board.cache_hierarchy.ruby_system.L1Cache_Controller.M.Fwd_GETX |          20     66.67%     66.67% |           4     13.33%     80.00% |           5     16.67%     96.67% |           1      3.33%    100.00% (Unspecified)
board.cache_hierarchy.ruby_system.L1Cache_Controller.M.Fwd_GETX::total           30                       (Unspecified)
board.cache_hierarchy.ruby_system.L1Cache_Controller.M.Fwd_GETS |          36     97.30%     97.30% |           0      0.00%     97.30% |           0      0.00%     97.30% |           1      2.70%    100.00% (Unspecified)
board.cache_hierarchy.ruby_system.L1Cache_Controller.M.Fwd_GETS::total           37                       (Unspecified)
board.cache_hierarchy.ruby_system.L1Cache_Controller.M.Load_Linked |          10    100.00%    100.00% |           0      0.00%    100.00% |           0      0.00%    100.00% |           0      0.00%    100.00% (Unspecified)
board.cache_hierarchy.ruby_system.L1Cache_Controller.M.Load_Linked::total           10                       (Unspecified)
board.cache_hierarchy.ruby_system.L1Cache_Controller.IS.Data_Exclusive |        1069     25.67%     25.67% |        1038     24.92%     50.59% |        1031     24.75%     75.34% |        1027     24.66%    100.00% (Unspecified)
board.cache_hierarchy.ruby_system.L1Cache_Controller.IS.Data_Exclusive::total         4165                       (Unspecified)
board.cache_hierarchy.ruby_system.L1Cache_Controller.IS.DataS_fromL1 |           1      1.67%      1.67% |          26     43.33%     45.00% |          19     31.67%     76.67% |          14     23.33%    100.00% (Unspecified)
board.cache_hierarchy.ruby_system.L1Cache_Controller.IS.DataS_fromL1::total           60                       (Unspecified)
board.cache_hierarchy.ruby_system.L1Cache_Controller.IS.Data_all_Acks |         247     39.90%     39.90% |         112     18.09%     58.00% |         127     20.52%     78.51% |         133     21.49%    100.00% (Unspecified)
board.cache_hierarchy.ruby_system.L1Cache_Controller.IS.Data_all_Acks::total          619                       (Unspecified)
board.cache_hierarchy.ruby_system.L1Cache_Controller.IM.Data_all_Acks |         105     52.50%     52.50% |          32     16.00%     68.50% |          32     16.00%     84.50% |          31     15.50%    100.00% (Unspecified)
board.cache_hierarchy.ruby_system.L1Cache_Controller.IM.Data_all_Acks::total          200                       (Unspecified)
board.cache_hierarchy.ruby_system.L1Cache_Controller.IM.LLSC_Data_all_Acks |           2    100.00%    100.00% |           0      0.00%    100.00% |           0      0.00%    100.00% |           0      0.00%    100.00% (Unspecified)
board.cache_hierarchy.ruby_system.L1Cache_Controller.IM.LLSC_Data_all_Acks::total            2                       (Unspecified)
board.cache_hierarchy.ruby_system.L1Cache_Controller.SM.Ack |           8     47.06%     47.06% |           2     11.76%     58.82% |           2     11.76%     70.59% |           5     29.41%    100.00% (Unspecified)
board.cache_hierarchy.ruby_system.L1Cache_Controller.SM.Ack::total           17                       (Unspecified)
board.cache_hierarchy.ruby_system.L1Cache_Controller.SM.Ack_all |           4     36.36%     36.36% |           2     18.18%     54.55% |           2     18.18%     72.73% |           3     27.27%    100.00% (Unspecified)
board.cache_hierarchy.ruby_system.L1Cache_Controller.SM.Ack_all::total           11                       (Unspecified)
board.cache_hierarchy.ruby_system.L1Cache_Controller.M_I.WB_Ack |        1070     39.64%     39.64% |         535     19.82%     59.47% |         554     20.53%     79.99% |         540     20.01%    100.00% (Unspecified)
board.cache_hierarchy.ruby_system.L1Cache_Controller.M_I.WB_Ack::total         2699                       (Unspecified)
board.cache_hierarchy.ruby_system.L1Cache_Controller.LLSC_E.Store |           2    100.00%    100.00% |           0      0.00%    100.00% |           0      0.00%    100.00% |           0      0.00%    100.00% (Unspecified)
board.cache_hierarchy.ruby_system.L1Cache_Controller.LLSC_E.Store::total            2                       (Unspecified)
board.cache_hierarchy.ruby_system.L1Cache_Controller.LLSC_E.LLSC_Timeout |           1    100.00%    100.00% |           0      0.00%    100.00% |           0      0.00%    100.00% |           0      0.00%    100.00% (Unspecified)
board.cache_hierarchy.ruby_system.L1Cache_Controller.LLSC_E.LLSC_Timeout::total            1                       (Unspecified)
board.cache_hierarchy.ruby_system.L1Cache_Controller.LLSC_M.Store |          10    100.00%    100.00% |           0      0.00%    100.00% |           0      0.00%    100.00% |           0      0.00%    100.00% (Unspecified)
board.cache_hierarchy.ruby_system.L1Cache_Controller.LLSC_M.Store::total           10                       (Unspecified)
board.cache_hierarchy.ruby_system.L1Cache_Controller.LLSC_M.LLSC_Timeout |          12    100.00%    100.00% |           0      0.00%    100.00% |           0      0.00%    100.00% |           0      0.00%    100.00% (Unspecified)
board.cache_hierarchy.ruby_system.L1Cache_Controller.LLSC_M.LLSC_Timeout::total           12                       (Unspecified)
board.cache_hierarchy.ruby_system.L2Cache_Controller.L1_GET_INSTR          563      0.00%      0.00% (Unspecified)
board.cache_hierarchy.ruby_system.L2Cache_Controller.L1_GETS         4291      0.00%      0.00% (Unspecified)
board.cache_hierarchy.ruby_system.L2Cache_Controller.L1_GETX          207      0.00%      0.00% (Unspecified)
board.cache_hierarchy.ruby_system.L2Cache_Controller.L1_UPGRADE           11      0.00%      0.00% (Unspecified)
board.cache_hierarchy.ruby_system.L2Cache_Controller.L1_PUTX         2699      0.00%      0.00% (Unspecified)
board.cache_hierarchy.ruby_system.L2Cache_Controller.L2_Replacement         1017      0.00%      0.00% (Unspecified)
board.cache_hierarchy.ruby_system.L2Cache_Controller.L2_Replacement_clean          916      0.00%      0.00% (Unspecified)
board.cache_hierarchy.ruby_system.L2Cache_Controller.Mem_Data         1933      0.00%      0.00% (Unspecified)
board.cache_hierarchy.ruby_system.L2Cache_Controller.Mem_Ack         1933      0.00%      0.00% (Unspecified)
board.cache_hierarchy.ruby_system.L2Cache_Controller.WB_Data           71      0.00%      0.00% (Unspecified)
board.cache_hierarchy.ruby_system.L2Cache_Controller.WB_Data_clean           23      0.00%      0.00% (Unspecified)
board.cache_hierarchy.ruby_system.L2Cache_Controller.Ack          234      0.00%      0.00% (Unspecified)
board.cache_hierarchy.ruby_system.L2Cache_Controller.Ack_all          442      0.00%      0.00% (Unspecified)
board.cache_hierarchy.ruby_system.L2Cache_Controller.Unblock           60      0.00%      0.00% (Unspecified)
board.cache_hierarchy.ruby_system.L2Cache_Controller.Exclusive_Unblock         4378      0.00%      0.00% (Unspecified)
board.cache_hierarchy.ruby_system.L2Cache_Controller.NP.L1_GET_INSTR          273      0.00%      0.00% (Unspecified)
board.cache_hierarchy.ruby_system.L2Cache_Controller.NP.L1_GETS         1493      0.00%      0.00% (Unspecified)
board.cache_hierarchy.ruby_system.L2Cache_Controller.NP.L1_GETX          167      0.00%      0.00% (Unspecified)
board.cache_hierarchy.ruby_system.L2Cache_Controller.SS.L1_GET_INSTR          263      0.00%      0.00% (Unspecified)
board.cache_hierarchy.ruby_system.L2Cache_Controller.SS.L1_GETS           53      0.00%      0.00% (Unspecified)
board.cache_hierarchy.ruby_system.L2Cache_Controller.SS.L1_UPGRADE           11      0.00%      0.00% (Unspecified)
board.cache_hierarchy.ruby_system.L2Cache_Controller.SS.L2_Replacement           16      0.00%      0.00% (Unspecified)
board.cache_hierarchy.ruby_system.L2Cache_Controller.SS.L2_Replacement_clean          359      0.00%      0.00% (Unspecified)
board.cache_hierarchy.ruby_system.L2Cache_Controller.M.L1_GETS         2674      0.00%      0.00% (Unspecified)
board.cache_hierarchy.ruby_system.L2Cache_Controller.M.L1_GETX            5      0.00%      0.00% (Unspecified)
board.cache_hierarchy.ruby_system.L2Cache_Controller.M.L2_Replacement          951      0.00%      0.00% (Unspecified)
board.cache_hierarchy.ruby_system.L2Cache_Controller.M.L2_Replacement_clean          506      0.00%      0.00% (Unspecified)
board.cache_hierarchy.ruby_system.L2Cache_Controller.MT.L1_GETS           60      0.00%      0.00% (Unspecified)
board.cache_hierarchy.ruby_system.L2Cache_Controller.MT.L1_GETX           30      0.00%      0.00% (Unspecified)
board.cache_hierarchy.ruby_system.L2Cache_Controller.MT.L1_PUTX         2699      0.00%      0.00% (Unspecified)
board.cache_hierarchy.ruby_system.L2Cache_Controller.MT.L2_Replacement           50      0.00%      0.00% (Unspecified)
board.cache_hierarchy.ruby_system.L2Cache_Controller.MT.L2_Replacement_clean           51      0.00%      0.00% (Unspecified)
board.cache_hierarchy.ruby_system.L2Cache_Controller.M_I.L1_GET_INSTR            3      0.00%      0.00% (Unspecified)
board.cache_hierarchy.ruby_system.L2Cache_Controller.M_I.L1_GETS            3      0.00%      0.00% (Unspecified)
board.cache_hierarchy.ruby_system.L2Cache_Controller.M_I.L1_GETX            2      0.00%      0.00% (Unspecified)
board.cache_hierarchy.ruby_system.L2Cache_Controller.M_I.Mem_Ack         1933      0.00%      0.00% (Unspecified)
board.cache_hierarchy.ruby_system.L2Cache_Controller.MT_I.WB_Data            6      0.00%      0.00% (Unspecified)
board.cache_hierarchy.ruby_system.L2Cache_Controller.MT_I.Ack_all           44      0.00%      0.00% (Unspecified)
board.cache_hierarchy.ruby_system.L2Cache_Controller.MCT_I.WB_Data           28      0.00%      0.00% (Unspecified)
board.cache_hierarchy.ruby_system.L2Cache_Controller.MCT_I.Ack_all           23      0.00%      0.00% (Unspecified)
board.cache_hierarchy.ruby_system.L2Cache_Controller.I_I.Ack          209      0.00%      0.00% (Unspecified)
board.cache_hierarchy.ruby_system.L2Cache_Controller.I_I.Ack_all          359      0.00%      0.00% (Unspecified)
board.cache_hierarchy.ruby_system.L2Cache_Controller.S_I.Ack           25      0.00%      0.00% (Unspecified)
board.cache_hierarchy.ruby_system.L2Cache_Controller.S_I.Ack_all           16      0.00%      0.00% (Unspecified)
board.cache_hierarchy.ruby_system.L2Cache_Controller.ISS.L1_GETS            2      0.00%      0.00% (Unspecified)
board.cache_hierarchy.ruby_system.L2Cache_Controller.ISS.Mem_Data         1491      0.00%      0.00% (Unspecified)
board.cache_hierarchy.ruby_system.L2Cache_Controller.IS.L1_GET_INSTR           24      0.00%      0.00% (Unspecified)
board.cache_hierarchy.ruby_system.L2Cache_Controller.IS.L1_GETS            2      0.00%      0.00% (Unspecified)
board.cache_hierarchy.ruby_system.L2Cache_Controller.IS.Mem_Data          275      0.00%      0.00% (Unspecified)
board.cache_hierarchy.ruby_system.L2Cache_Controller.IM.Mem_Data          167      0.00%      0.00% (Unspecified)
board.cache_hierarchy.ruby_system.L2Cache_Controller.SS_MB.L1_GETS            1      0.00%      0.00% (Unspecified)
board.cache_hierarchy.ruby_system.L2Cache_Controller.SS_MB.Exclusive_Unblock           11      0.00%      0.00% (Unspecified)
board.cache_hierarchy.ruby_system.L2Cache_Controller.MT_MB.L1_GETX            3      0.00%      0.00% (Unspecified)
board.cache_hierarchy.ruby_system.L2Cache_Controller.MT_MB.Exclusive_Unblock         4367      0.00%      0.00% (Unspecified)
board.cache_hierarchy.ruby_system.L2Cache_Controller.MT_IIB.L1_GETS            2      0.00%      0.00% (Unspecified)
board.cache_hierarchy.ruby_system.L2Cache_Controller.MT_IIB.WB_Data           37      0.00%      0.00% (Unspecified)
board.cache_hierarchy.ruby_system.L2Cache_Controller.MT_IIB.WB_Data_clean           23      0.00%      0.00% (Unspecified)
board.cache_hierarchy.ruby_system.L2Cache_Controller.MT_SB.L1_GETS            1      0.00%      0.00% (Unspecified)
board.cache_hierarchy.ruby_system.L2Cache_Controller.MT_SB.Unblock           60      0.00%      0.00% (Unspecified)
board.cache_hierarchy.ruby_system.RequestType.LD.latency_hist_seqr::bucket_size          128                       (Unspecified)
board.cache_hierarchy.ruby_system.RequestType.LD.latency_hist_seqr::max_bucket         1279                       (Unspecified)
board.cache_hierarchy.ruby_system.RequestType.LD.latency_hist_seqr::samples       759504                       (Unspecified)
board.cache_hierarchy.ruby_system.RequestType.LD.latency_hist_seqr::mean     1.393779                       (Unspecified)
board.cache_hierarchy.ruby_system.RequestType.LD.latency_hist_seqr::gmean     1.019738                       (Unspecified)
board.cache_hierarchy.ruby_system.RequestType.LD.latency_hist_seqr::stdev     9.350077                       (Unspecified)
board.cache_hierarchy.ruby_system.RequestType.LD.latency_hist_seqr |      758022     99.80%     99.80% |        1390      0.18%     99.99% |          14      0.00%     99.99% |          37      0.00%     99.99% |          15      0.00%    100.00% |           3      0.00%    100.00% |          14      0.00%    100.00% |           9      0.00%    100.00% |           0      0.00%    100.00% |           0      0.00%    100.00% (Unspecified)
board.cache_hierarchy.ruby_system.RequestType.LD.latency_hist_seqr::total       759504                       (Unspecified)
board.cache_hierarchy.ruby_system.RequestType.LD.hit_latency_hist_seqr::bucket_size            1                       (Unspecified)
board.cache_hierarchy.ruby_system.RequestType.LD.hit_latency_hist_seqr::max_bucket            9                       (Unspecified)
board.cache_hierarchy.ruby_system.RequestType.LD.hit_latency_hist_seqr::samples       755220                       (Unspecified)
board.cache_hierarchy.ruby_system.RequestType.LD.hit_latency_hist_seqr::mean            1                       (Unspecified)
board.cache_hierarchy.ruby_system.RequestType.LD.hit_latency_hist_seqr::gmean            1                       (Unspecified)
board.cache_hierarchy.ruby_system.RequestType.LD.hit_latency_hist_seqr |           0      0.00%      0.00% |      755220    100.00%    100.00% |           0      0.00%    100.00% |           0      0.00%    100.00% |           0      0.00%    100.00% |           0      0.00%    100.00% |           0      0.00%    100.00% |           0      0.00%    100.00% |           0      0.00%    100.00% |           0      0.00%    100.00% (Unspecified)
board.cache_hierarchy.ruby_system.RequestType.LD.hit_latency_hist_seqr::total       755220                       (Unspecified)
board.cache_hierarchy.ruby_system.RequestType.LD.miss_latency_hist_seqr::bucket_size          128                       (Unspecified)
board.cache_hierarchy.ruby_system.RequestType.LD.miss_latency_hist_seqr::max_bucket         1279                       (Unspecified)
board.cache_hierarchy.ruby_system.RequestType.LD.miss_latency_hist_seqr::samples         4284                       (Unspecified)
board.cache_hierarchy.ruby_system.RequestType.LD.miss_latency_hist_seqr::mean    70.812558                       (Unspecified)
board.cache_hierarchy.ruby_system.RequestType.LD.miss_latency_hist_seqr::gmean    31.985012                       (Unspecified)
board.cache_hierarchy.ruby_system.RequestType.LD.miss_latency_hist_seqr::stdev   103.225110                       (Unspecified)
board.cache_hierarchy.ruby_system.RequestType.LD.miss_latency_hist_seqr |        2802     65.41%     65.41% |        1390     32.45%     97.85% |          14      0.33%     98.18% |          37      0.86%     99.04% |          15      0.35%     99.39% |           3      0.07%     99.46% |          14      0.33%     99.79% |           9      0.21%    100.00% |           0      0.00%    100.00% |           0      0.00%    100.00% (Unspecified)
board.cache_hierarchy.ruby_system.RequestType.LD.miss_latency_hist_seqr::total         4284                       (Unspecified)
board.cache_hierarchy.ruby_system.RequestType.ST.latency_hist_seqr::bucket_size           64                       (Unspecified)
board.cache_hierarchy.ruby_system.RequestType.ST.latency_hist_seqr::max_bucket          639                       (Unspecified)
board.cache_hierarchy.ruby_system.RequestType.ST.latency_hist_seqr::samples       143580                       (Unspecified)
board.cache_hierarchy.ruby_system.RequestType.ST.latency_hist_seqr::mean     1.205474                       (Unspecified)
board.cache_hierarchy.ruby_system.RequestType.ST.latency_hist_seqr::gmean     1.006812                       (Unspecified)
board.cache_hierarchy.ruby_system.RequestType.ST.latency_hist_seqr::stdev     6.527557                       (Unspecified)
board.cache_hierarchy.ruby_system.RequestType.ST.latency_hist_seqr |      143418     99.89%     99.89% |           1      0.00%     99.89% |         135      0.09%     99.98% |          16      0.01%     99.99% |           1      0.00%     99.99% |           2      0.00%    100.00% |           2      0.00%    100.00% |           1      0.00%    100.00% |           2      0.00%    100.00% |           2      0.00%    100.00% (Unspecified)
board.cache_hierarchy.ruby_system.RequestType.ST.latency_hist_seqr::total       143580                       (Unspecified)
board.cache_hierarchy.ruby_system.RequestType.ST.hit_latency_hist_seqr::bucket_size            1                       (Unspecified)
board.cache_hierarchy.ruby_system.RequestType.ST.hit_latency_hist_seqr::max_bucket            9                       (Unspecified)
board.cache_hierarchy.ruby_system.RequestType.ST.hit_latency_hist_seqr::samples       143369                       (Unspecified)
board.cache_hierarchy.ruby_system.RequestType.ST.hit_latency_hist_seqr::mean            1                       (Unspecified)
board.cache_hierarchy.ruby_system.RequestType.ST.hit_latency_hist_seqr::gmean            1                       (Unspecified)
board.cache_hierarchy.ruby_system.RequestType.ST.hit_latency_hist_seqr |           0      0.00%      0.00% |      143369    100.00%    100.00% |           0      0.00%    100.00% |           0      0.00%    100.00% |           0      0.00%    100.00% |           0      0.00%    100.00% |           0      0.00%    100.00% |           0      0.00%    100.00% |           0      0.00%    100.00% |           0      0.00%    100.00% (Unspecified)
board.cache_hierarchy.ruby_system.RequestType.ST.hit_latency_hist_seqr::total       143369                       (Unspecified)
board.cache_hierarchy.ruby_system.RequestType.ST.miss_latency_hist_seqr::bucket_size           64                       (Unspecified)
board.cache_hierarchy.ruby_system.RequestType.ST.miss_latency_hist_seqr::max_bucket          639                       (Unspecified)
board.cache_hierarchy.ruby_system.RequestType.ST.miss_latency_hist_seqr::samples          211                       (Unspecified)
board.cache_hierarchy.ruby_system.RequestType.ST.miss_latency_hist_seqr::mean   140.819905                       (Unspecified)
board.cache_hierarchy.ruby_system.RequestType.ST.miss_latency_hist_seqr::gmean   101.475624                       (Unspecified)
board.cache_hierarchy.ruby_system.RequestType.ST.miss_latency_hist_seqr::stdev    97.562023                       (Unspecified)
board.cache_hierarchy.ruby_system.RequestType.ST.miss_latency_hist_seqr |          49     23.22%     23.22% |           1      0.47%     23.70% |         135     63.98%     87.68% |          16      7.58%     95.26% |           1      0.47%     95.73% |           2      0.95%     96.68% |           2      0.95%     97.63% |           1      0.47%     98.10% |           2      0.95%     99.05% |           2      0.95%    100.00% (Unspecified)
board.cache_hierarchy.ruby_system.RequestType.ST.miss_latency_hist_seqr::total          211                       (Unspecified)
board.cache_hierarchy.ruby_system.RequestType.IFETCH.latency_hist_seqr::bucket_size          128                       (Unspecified)
board.cache_hierarchy.ruby_system.RequestType.IFETCH.latency_hist_seqr::max_bucket         1279                       (Unspecified)
board.cache_hierarchy.ruby_system.RequestType.IFETCH.latency_hist_seqr::samples      2047981                       (Unspecified)
board.cache_hierarchy.ruby_system.RequestType.IFETCH.latency_hist_seqr::mean     1.028804                       (Unspecified)
board.cache_hierarchy.ruby_system.RequestType.IFETCH.latency_hist_seqr::gmean     1.001076                       (Unspecified)
board.cache_hierarchy.ruby_system.RequestType.IFETCH.latency_hist_seqr::stdev     2.682743                       (Unspecified)
board.cache_hierarchy.ruby_system.RequestType.IFETCH.latency_hist_seqr |     2047690     99.99%     99.99% |         267      0.01%    100.00% |           6      0.00%    100.00% |          10      0.00%    100.00% |           3      0.00%    100.00% |           0      0.00%    100.00% |           1      0.00%    100.00% |           4      0.00%    100.00% |           0      0.00%    100.00% |           0      0.00%    100.00% (Unspecified)
board.cache_hierarchy.ruby_system.RequestType.IFETCH.latency_hist_seqr::total      2047981                       (Unspecified)
board.cache_hierarchy.ruby_system.RequestType.IFETCH.hit_latency_hist_seqr::bucket_size            1                       (Unspecified)
board.cache_hierarchy.ruby_system.RequestType.IFETCH.hit_latency_hist_seqr::max_bucket            9                       (Unspecified)
board.cache_hierarchy.ruby_system.RequestType.IFETCH.hit_latency_hist_seqr::samples      2047421                       (Unspecified)
board.cache_hierarchy.ruby_system.RequestType.IFETCH.hit_latency_hist_seqr::mean            1                       (Unspecified)
board.cache_hierarchy.ruby_system.RequestType.IFETCH.hit_latency_hist_seqr::gmean            1                       (Unspecified)
board.cache_hierarchy.ruby_system.RequestType.IFETCH.hit_latency_hist_seqr |           0      0.00%      0.00% |     2047421    100.00%    100.00% |           0      0.00%    100.00% |           0      0.00%    100.00% |           0      0.00%    100.00% |           0      0.00%    100.00% |           0      0.00%    100.00% |           0      0.00%    100.00% |           0      0.00%    100.00% |           0      0.00%    100.00% (Unspecified)
board.cache_hierarchy.ruby_system.RequestType.IFETCH.hit_latency_hist_seqr::total      2047421                       (Unspecified)
board.cache_hierarchy.ruby_system.RequestType.IFETCH.miss_latency_hist_seqr::bucket_size          128                       (Unspecified)
board.cache_hierarchy.ruby_system.RequestType.IFETCH.miss_latency_hist_seqr::max_bucket         1279                       (Unspecified)
board.cache_hierarchy.ruby_system.RequestType.IFETCH.miss_latency_hist_seqr::samples          560                       (Unspecified)
board.cache_hierarchy.ruby_system.RequestType.IFETCH.miss_latency_hist_seqr::mean   106.339286                       (Unspecified)
board.cache_hierarchy.ruby_system.RequestType.IFETCH.miss_latency_hist_seqr::gmean    51.143653                       (Unspecified)
board.cache_hierarchy.ruby_system.RequestType.IFETCH.miss_latency_hist_seqr::stdev   123.509124                       (Unspecified)
board.cache_hierarchy.ruby_system.RequestType.IFETCH.miss_latency_hist_seqr |         269     48.04%     48.04% |         267     47.68%     95.71% |           6      1.07%     96.79% |          10      1.79%     98.57% |           3      0.54%     99.11% |           0      0.00%     99.11% |           1      0.18%     99.29% |           4      0.71%    100.00% |           0      0.00%    100.00% |           0      0.00%    100.00% (Unspecified)
board.cache_hierarchy.ruby_system.RequestType.IFETCH.miss_latency_hist_seqr::total          560                       (Unspecified)
board.cache_hierarchy.ruby_system.RequestType.Load_Linked.latency_hist_seqr::bucket_size           32                       (Unspecified)
board.cache_hierarchy.ruby_system.RequestType.Load_Linked.latency_hist_seqr::max_bucket          319                       (Unspecified)
board.cache_hierarchy.ruby_system.RequestType.Load_Linked.latency_hist_seqr::samples           13                       (Unspecified)
board.cache_hierarchy.ruby_system.RequestType.Load_Linked.latency_hist_seqr::mean    30.230769                       (Unspecified)
board.cache_hierarchy.ruby_system.RequestType.Load_Linked.latency_hist_seqr::gmean     2.235385                       (Unspecified)
board.cache_hierarchy.ruby_system.RequestType.Load_Linked.latency_hist_seqr::stdev    73.288419                       (Unspecified)
board.cache_hierarchy.ruby_system.RequestType.Load_Linked.latency_hist_seqr |          11     84.62%     84.62% |           0      0.00%     84.62% |           0      0.00%     84.62% |           0      0.00%     84.62% |           1      7.69%     92.31% |           0      0.00%     92.31% |           0      0.00%     92.31% |           1      7.69%    100.00% |           0      0.00%    100.00% |           0      0.00%    100.00% (Unspecified)
board.cache_hierarchy.ruby_system.RequestType.Load_Linked.latency_hist_seqr::total           13                       (Unspecified)
board.cache_hierarchy.ruby_system.RequestType.Load_Linked.hit_latency_hist_seqr::bucket_size            1                       (Unspecified)
board.cache_hierarchy.ruby_system.RequestType.Load_Linked.hit_latency_hist_seqr::max_bucket            9                       (Unspecified)
board.cache_hierarchy.ruby_system.RequestType.Load_Linked.hit_latency_hist_seqr::samples           11                       (Unspecified)
board.cache_hierarchy.ruby_system.RequestType.Load_Linked.hit_latency_hist_seqr::mean            1                       (Unspecified)
board.cache_hierarchy.ruby_system.RequestType.Load_Linked.hit_latency_hist_seqr::gmean            1                       (Unspecified)
board.cache_hierarchy.ruby_system.RequestType.Load_Linked.hit_latency_hist_seqr |           0      0.00%      0.00% |          11    100.00%    100.00% |           0      0.00%    100.00% |           0      0.00%    100.00% |           0      0.00%    100.00% |           0      0.00%    100.00% |           0      0.00%    100.00% |           0      0.00%    100.00% |           0      0.00%    100.00% |           0      0.00%    100.00% (Unspecified)
board.cache_hierarchy.ruby_system.RequestType.Load_Linked.hit_latency_hist_seqr::total           11                       (Unspecified)
board.cache_hierarchy.ruby_system.RequestType.Load_Linked.miss_latency_hist_seqr::bucket_size           32                       (Unspecified)
board.cache_hierarchy.ruby_system.RequestType.Load_Linked.miss_latency_hist_seqr::max_bucket          319                       (Unspecified)
board.cache_hierarchy.ruby_system.RequestType.Load_Linked.miss_latency_hist_seqr::samples            2                       (Unspecified)
board.cache_hierarchy.ruby_system.RequestType.Load_Linked.miss_latency_hist_seqr::mean          191                       (Unspecified)
board.cache_hierarchy.ruby_system.RequestType.Load_Linked.miss_latency_hist_seqr::gmean   186.547581                       (Unspecified)
board.cache_hierarchy.ruby_system.RequestType.Load_Linked.miss_latency_hist_seqr::stdev    57.982756                       (Unspecified)
board.cache_hierarchy.ruby_system.RequestType.Load_Linked.miss_latency_hist_seqr |           0      0.00%      0.00% |           0      0.00%      0.00% |           0      0.00%      0.00% |           0      0.00%      0.00% |           1     50.00%     50.00% |           0      0.00%     50.00% |           0      0.00%     50.00% |           1     50.00%    100.00% |           0      0.00%    100.00% |           0      0.00%    100.00% (Unspecified)
board.cache_hierarchy.ruby_system.RequestType.Load_Linked.miss_latency_hist_seqr::total            2                       (Unspecified)
board.cache_hierarchy.ruby_system.RequestType.Store_Conditional.latency_hist_seqr::bucket_size            1                       (Unspecified)
board.cache_hierarchy.ruby_system.RequestType.Store_Conditional.latency_hist_seqr::max_bucket            9                       (Unspecified)
board.cache_hierarchy.ruby_system.RequestType.Store_Conditional.latency_hist_seqr::samples           13                       (Unspecified)
board.cache_hierarchy.ruby_system.RequestType.Store_Conditional.latency_hist_seqr::mean            1                       (Unspecified)
board.cache_hierarchy.ruby_system.RequestType.Store_Conditional.latency_hist_seqr::gmean            1                       (Unspecified)
board.cache_hierarchy.ruby_system.RequestType.Store_Conditional.latency_hist_seqr |           0      0.00%      0.00% |          13    100.00%    100.00% |           0      0.00%    100.00% |           0      0.00%    100.00% |           0      0.00%    100.00% |           0      0.00%    100.00% |           0      0.00%    100.00% |           0      0.00%    100.00% |           0      0.00%    100.00% |           0      0.00%    100.00% (Unspecified)
board.cache_hierarchy.ruby_system.RequestType.Store_Conditional.latency_hist_seqr::total           13                       (Unspecified)
board.cache_hierarchy.ruby_system.RequestType.Store_Conditional.hit_latency_hist_seqr::bucket_size            1                       (Unspecified)
board.cache_hierarchy.ruby_system.RequestType.Store_Conditional.hit_latency_hist_seqr::max_bucket            9                       (Unspecified)
board.cache_hierarchy.ruby_system.RequestType.Store_Conditional.hit_latency_hist_seqr::samples           13                       (Unspecified)
board.cache_hierarchy.ruby_system.RequestType.Store_Conditional.hit_latency_hist_seqr::mean            1                       (Unspecified)
board.cache_hierarchy.ruby_system.RequestType.Store_Conditional.hit_latency_hist_seqr::gmean            1                       (Unspecified)
board.cache_hierarchy.ruby_system.RequestType.Store_Conditional.hit_latency_hist_seqr |           0      0.00%      0.00% |          13    100.00%    100.00% |           0      0.00%    100.00% |           0      0.00%    100.00% |           0      0.00%    100.00% |           0      0.00%    100.00% |           0      0.00%    100.00% |           0      0.00%    100.00% |           0      0.00%    100.00% |           0      0.00%    100.00% (Unspecified)
board.cache_hierarchy.ruby_system.RequestType.Store_Conditional.hit_latency_hist_seqr::total           13                       (Unspecified)
board.cache_hierarchy.ruby_system.directory_controllers.power_state.pwrStateResidencyTicks::UNDEFINED   2064576024                       # Cumulative time (in ticks) in various power states (Tick)
board.cache_hierarchy.ruby_system.directory_controllers.requestToDir.m_msg_count         1933                       # Number of messages passed the buffer (Count)
board.cache_hierarchy.ruby_system.directory_controllers.requestToDir.m_buf_msgs     0.001190                       # Average number of messages in buffer ((Count/Tick))
board.cache_hierarchy.ruby_system.directory_controllers.requestToMemory.m_msg_count         2978                       # Number of messages passed the buffer (Count)
board.cache_hierarchy.ruby_system.directory_controllers.requestToMemory.m_buf_msgs     0.001839                       # Average number of messages in buffer ((Count/Tick))
board.cache_hierarchy.ruby_system.directory_controllers.requestToMemory.m_stall_time         3330                       # Total number of ticks messages were stalled in this buffer (Tick)
board.cache_hierarchy.ruby_system.directory_controllers.requestToMemory.m_avg_stall_time     1.118200                       # Average stall ticks per message ((Tick/Count))
board.cache_hierarchy.ruby_system.directory_controllers.responseFromDir.m_msg_count         3866                       # Number of messages passed the buffer (Count)
board.cache_hierarchy.ruby_system.directory_controllers.responseFromDir.m_buf_msgs     0.002380                       # Average number of messages in buffer ((Count/Tick))
board.cache_hierarchy.ruby_system.directory_controllers.responseFromMemory.m_msg_count         2978                       # Number of messages passed the buffer (Count)
board.cache_hierarchy.ruby_system.directory_controllers.responseFromMemory.m_buf_msgs     0.003124                       # Average number of messages in buffer ((Count/Tick))
board.cache_hierarchy.ruby_system.directory_controllers.responseToDir.m_msg_count         1933                       # Number of messages passed the buffer (Count)
board.cache_hierarchy.ruby_system.directory_controllers.responseToDir.m_buf_msgs     0.001190                       # Average number of messages in buffer ((Count/Tick))
board.cache_hierarchy.ruby_system.l1_controllers0.delayHistogram::samples         2986                       # delay_histogram (Unspecified)
board.cache_hierarchy.ruby_system.l1_controllers0.delayHistogram::mean     0.001340                       # delay_histogram (Unspecified)
board.cache_hierarchy.ruby_system.l1_controllers0.delayHistogram::stdev     0.051752                       # delay_histogram (Unspecified)
board.cache_hierarchy.ruby_system.l1_controllers0.delayHistogram::0         2984     99.93%     99.93% # delay_histogram (Unspecified)
board.cache_hierarchy.ruby_system.l1_controllers0.delayHistogram::2            2      0.07%    100.00% # delay_histogram (Unspecified)
board.cache_hierarchy.ruby_system.l1_controllers0.delayHistogram::total         2986                       # delay_histogram (Unspecified)
board.cache_hierarchy.ruby_system.l1_controllers0.L1Dcache.m_demand_hits       215952                       # Number of cache demand hits (Unspecified)
board.cache_hierarchy.ruby_system.l1_controllers0.L1Dcache.m_demand_misses         1185                       # Number of cache demand misses (Unspecified)
board.cache_hierarchy.ruby_system.l1_controllers0.L1Dcache.m_demand_accesses       217137                       # Number of cache demand accesses (Unspecified)
board.cache_hierarchy.ruby_system.l1_controllers0.L1Icache.m_demand_hits       486629                       # Number of cache demand hits (Unspecified)
board.cache_hierarchy.ruby_system.l1_controllers0.L1Icache.m_demand_misses          243                       # Number of cache demand misses (Unspecified)
board.cache_hierarchy.ruby_system.l1_controllers0.L1Icache.m_demand_accesses       486872                       # Number of cache demand accesses (Unspecified)
board.cache_hierarchy.ruby_system.l1_controllers0.mandatoryQueue.m_msg_count       704009                       # Number of messages passed the buffer (Count)
board.cache_hierarchy.ruby_system.l1_controllers0.mandatoryQueue.m_buf_msgs     0.433357                       # Average number of messages in buffer ((Count/Tick))
board.cache_hierarchy.ruby_system.l1_controllers0.power_state.pwrStateResidencyTicks::UNDEFINED   2064576024                       # Cumulative time (in ticks) in various power states (Tick)
board.cache_hierarchy.ruby_system.l1_controllers0.prefetcher.RubyPrefetcher.numMissObserved            0                       # Number of misses observed (Unspecified)
board.cache_hierarchy.ruby_system.l1_controllers0.prefetcher.RubyPrefetcher.numAllocatedStreams            0                       # Number of streams allocated for prefetching (Unspecified)
board.cache_hierarchy.ruby_system.l1_controllers0.prefetcher.RubyPrefetcher.numPrefetchRequested            0                       # Number of prefetch requests made (Unspecified)
board.cache_hierarchy.ruby_system.l1_controllers0.prefetcher.RubyPrefetcher.numHits            0                       # Number of prefetched blocks accessed (for the first time) (Unspecified)
board.cache_hierarchy.ruby_system.l1_controllers0.prefetcher.RubyPrefetcher.numPartialHits            0                       # Number of misses observed for a block being prefetched (Unspecified)
board.cache_hierarchy.ruby_system.l1_controllers0.prefetcher.RubyPrefetcher.numPagesCrossed            0                       # Number of prefetches across pages (Unspecified)
board.cache_hierarchy.ruby_system.l1_controllers0.prefetcher.RubyPrefetcher.numMissedPrefetchedBlocks            0                       # Number of misses for blocks that were prefetched, yet missed (Unspecified)
board.cache_hierarchy.ruby_system.l1_controllers0.requestFromL1Cache.m_msg_count         2498                       # Number of messages passed the buffer (Count)
board.cache_hierarchy.ruby_system.l1_controllers0.requestFromL1Cache.m_buf_msgs     0.003075                       # Average number of messages in buffer ((Count/Tick))
board.cache_hierarchy.ruby_system.l1_controllers0.requestToL1Cache.m_msg_count          480                       # Number of messages passed the buffer (Count)
board.cache_hierarchy.ruby_system.l1_controllers0.requestToL1Cache.m_buf_msgs     0.000295                       # Average number of messages in buffer ((Count/Tick))
board.cache_hierarchy.ruby_system.l1_controllers0.responseFromL1Cache.m_msg_count          527                       # Number of messages passed the buffer (Count)
board.cache_hierarchy.ruby_system.l1_controllers0.responseFromL1Cache.m_buf_msgs     0.000649                       # Average number of messages in buffer ((Count/Tick))
board.cache_hierarchy.ruby_system.l1_controllers0.responseToL1Cache.m_msg_count         2506                       # Number of messages passed the buffer (Count)
board.cache_hierarchy.ruby_system.l1_controllers0.responseToL1Cache.m_buf_msgs     0.001543                       # Average number of messages in buffer ((Count/Tick))
board.cache_hierarchy.ruby_system.l1_controllers0.sequencer.power_state.pwrStateResidencyTicks::UNDEFINED   2064576024                       # Cumulative time (in ticks) in various power states (Tick)
board.cache_hierarchy.ruby_system.l1_controllers0.unblockFromL1Cache.m_msg_count         1181                       # Number of messages passed the buffer (Count)
board.cache_hierarchy.ruby_system.l1_controllers0.unblockFromL1Cache.m_buf_msgs     0.000727                       # Average number of messages in buffer ((Count/Tick))
board.cache_hierarchy.ruby_system.l1_controllers1.delayHistogram::samples         1872                       # delay_histogram (Unspecified)
board.cache_hierarchy.ruby_system.l1_controllers1.delayHistogram::0         1872    100.00%    100.00% # delay_histogram (Unspecified)
board.cache_hierarchy.ruby_system.l1_controllers1.delayHistogram::total         1872                       # delay_histogram (Unspecified)
board.cache_hierarchy.ruby_system.l1_controllers1.L1Dcache.m_demand_hits       221507                       # Number of cache demand hits (Unspecified)
board.cache_hierarchy.ruby_system.l1_controllers1.L1Dcache.m_demand_misses         1105                       # Number of cache demand misses (Unspecified)
board.cache_hierarchy.ruby_system.l1_controllers1.L1Dcache.m_demand_accesses       222612                       # Number of cache demand accesses (Unspecified)
board.cache_hierarchy.ruby_system.l1_controllers1.L1Icache.m_demand_hits       502796                       # Number of cache demand hits (Unspecified)
board.cache_hierarchy.ruby_system.l1_controllers1.L1Icache.m_demand_misses          105                       # Number of cache demand misses (Unspecified)
board.cache_hierarchy.ruby_system.l1_controllers1.L1Icache.m_demand_accesses       502901                       # Number of cache demand accesses (Unspecified)
board.cache_hierarchy.ruby_system.l1_controllers1.mandatoryQueue.m_msg_count       725513                       # Number of messages passed the buffer (Count)
board.cache_hierarchy.ruby_system.l1_controllers1.mandatoryQueue.m_buf_msgs     0.446594                       # Average number of messages in buffer ((Count/Tick))
board.cache_hierarchy.ruby_system.l1_controllers1.power_state.pwrStateResidencyTicks::UNDEFINED   2064576024                       # Cumulative time (in ticks) in various power states (Tick)
board.cache_hierarchy.ruby_system.l1_controllers1.prefetcher.RubyPrefetcher.numMissObserved            0                       # Number of misses observed (Unspecified)
board.cache_hierarchy.ruby_system.l1_controllers1.prefetcher.RubyPrefetcher.numAllocatedStreams            0                       # Number of streams allocated for prefetching (Unspecified)
board.cache_hierarchy.ruby_system.l1_controllers1.prefetcher.RubyPrefetcher.numPrefetchRequested            0                       # Number of prefetch requests made (Unspecified)
board.cache_hierarchy.ruby_system.l1_controllers1.prefetcher.RubyPrefetcher.numHits            0                       # Number of prefetched blocks accessed (for the first time) (Unspecified)
board.cache_hierarchy.ruby_system.l1_controllers1.prefetcher.RubyPrefetcher.numPartialHits            0                       # Number of misses observed for a block being prefetched (Unspecified)
board.cache_hierarchy.ruby_system.l1_controllers1.prefetcher.RubyPrefetcher.numPagesCrossed            0                       # Number of prefetches across pages (Unspecified)
board.cache_hierarchy.ruby_system.l1_controllers1.prefetcher.RubyPrefetcher.numMissedPrefetchedBlocks            0                       # Number of misses for blocks that were prefetched, yet missed (Unspecified)
board.cache_hierarchy.ruby_system.l1_controllers1.requestFromL1Cache.m_msg_count         1745                       # Number of messages passed the buffer (Count)
board.cache_hierarchy.ruby_system.l1_controllers1.requestFromL1Cache.m_buf_msgs     0.002148                       # Average number of messages in buffer ((Count/Tick))
board.cache_hierarchy.ruby_system.l1_controllers1.requestToL1Cache.m_msg_count          125                       # Number of messages passed the buffer (Count)
board.cache_hierarchy.ruby_system.l1_controllers1.requestToL1Cache.m_buf_msgs     0.000077                       # Average number of messages in buffer ((Count/Tick))
board.cache_hierarchy.ruby_system.l1_controllers1.responseFromL1Cache.m_msg_count          133                       # Number of messages passed the buffer (Count)
board.cache_hierarchy.ruby_system.l1_controllers1.responseFromL1Cache.m_buf_msgs     0.000164                       # Average number of messages in buffer ((Count/Tick))
board.cache_hierarchy.ruby_system.l1_controllers1.responseToL1Cache.m_msg_count         1747                       # Number of messages passed the buffer (Count)
board.cache_hierarchy.ruby_system.l1_controllers1.responseToL1Cache.m_buf_msgs     0.001075                       # Average number of messages in buffer ((Count/Tick))
board.cache_hierarchy.ruby_system.l1_controllers1.sequencer.power_state.pwrStateResidencyTicks::UNDEFINED   2064576024                       # Cumulative time (in ticks) in various power states (Tick)
board.cache_hierarchy.ruby_system.l1_controllers1.unblockFromL1Cache.m_msg_count         1098                       # Number of messages passed the buffer (Count)
board.cache_hierarchy.ruby_system.l1_controllers1.unblockFromL1Cache.m_buf_msgs     0.000676                       # Average number of messages in buffer ((Count/Tick))
board.cache_hierarchy.ruby_system.l1_controllers2.delayHistogram::samples         1868                       # delay_histogram (Unspecified)
board.cache_hierarchy.ruby_system.l1_controllers2.delayHistogram::0         1868    100.00%    100.00% # delay_histogram (Unspecified)
board.cache_hierarchy.ruby_system.l1_controllers2.delayHistogram::total         1868                       # delay_histogram (Unspecified)
board.cache_hierarchy.ruby_system.l1_controllers2.L1Dcache.m_demand_hits       230677                       # Number of cache demand hits (Unspecified)
board.cache_hierarchy.ruby_system.l1_controllers2.L1Dcache.m_demand_misses         1106                       # Number of cache demand misses (Unspecified)
board.cache_hierarchy.ruby_system.l1_controllers2.L1Dcache.m_demand_accesses       231783                       # Number of cache demand accesses (Unspecified)
board.cache_hierarchy.ruby_system.l1_controllers2.L1Icache.m_demand_hits       529290                       # Number of cache demand hits (Unspecified)
board.cache_hierarchy.ruby_system.l1_controllers2.L1Icache.m_demand_misses          105                       # Number of cache demand misses (Unspecified)
board.cache_hierarchy.ruby_system.l1_controllers2.L1Icache.m_demand_accesses       529395                       # Number of cache demand accesses (Unspecified)
board.cache_hierarchy.ruby_system.l1_controllers2.mandatoryQueue.m_msg_count       761178                       # Number of messages passed the buffer (Count)
board.cache_hierarchy.ruby_system.l1_controllers2.mandatoryQueue.m_buf_msgs     0.468548                       # Average number of messages in buffer ((Count/Tick))
board.cache_hierarchy.ruby_system.l1_controllers2.power_state.pwrStateResidencyTicks::UNDEFINED   2064576024                       # Cumulative time (in ticks) in various power states (Tick)
board.cache_hierarchy.ruby_system.l1_controllers2.prefetcher.RubyPrefetcher.numMissObserved            0                       # Number of misses observed (Unspecified)
board.cache_hierarchy.ruby_system.l1_controllers2.prefetcher.RubyPrefetcher.numAllocatedStreams            0                       # Number of streams allocated for prefetching (Unspecified)
board.cache_hierarchy.ruby_system.l1_controllers2.prefetcher.RubyPrefetcher.numPrefetchRequested            0                       # Number of prefetch requests made (Unspecified)
board.cache_hierarchy.ruby_system.l1_controllers2.prefetcher.RubyPrefetcher.numHits            0                       # Number of prefetched blocks accessed (for the first time) (Unspecified)
board.cache_hierarchy.ruby_system.l1_controllers2.prefetcher.RubyPrefetcher.numPartialHits            0                       # Number of misses observed for a block being prefetched (Unspecified)
board.cache_hierarchy.ruby_system.l1_controllers2.prefetcher.RubyPrefetcher.numPagesCrossed            0                       # Number of prefetches across pages (Unspecified)
board.cache_hierarchy.ruby_system.l1_controllers2.prefetcher.RubyPrefetcher.numMissedPrefetchedBlocks            0                       # Number of misses for blocks that were prefetched, yet missed (Unspecified)
board.cache_hierarchy.ruby_system.l1_controllers2.requestFromL1Cache.m_msg_count         1765                       # Number of messages passed the buffer (Count)
board.cache_hierarchy.ruby_system.l1_controllers2.requestFromL1Cache.m_buf_msgs     0.002173                       # Average number of messages in buffer ((Count/Tick))
board.cache_hierarchy.ruby_system.l1_controllers2.requestToL1Cache.m_msg_count          101                       # Number of messages passed the buffer (Count)
board.cache_hierarchy.ruby_system.l1_controllers2.requestToL1Cache.m_buf_msgs     0.000062                       # Average number of messages in buffer ((Count/Tick))
board.cache_hierarchy.ruby_system.l1_controllers2.responseFromL1Cache.m_msg_count          101                       # Number of messages passed the buffer (Count)
board.cache_hierarchy.ruby_system.l1_controllers2.responseFromL1Cache.m_buf_msgs     0.000124                       # Average number of messages in buffer ((Count/Tick))
board.cache_hierarchy.ruby_system.l1_controllers2.responseToL1Cache.m_msg_count         1767                       # Number of messages passed the buffer (Count)
board.cache_hierarchy.ruby_system.l1_controllers2.responseToL1Cache.m_buf_msgs     0.001088                       # Average number of messages in buffer ((Count/Tick))
board.cache_hierarchy.ruby_system.l1_controllers2.sequencer.power_state.pwrStateResidencyTicks::UNDEFINED   2064576024                       # Cumulative time (in ticks) in various power states (Tick)
board.cache_hierarchy.ruby_system.l1_controllers2.unblockFromL1Cache.m_msg_count         1084                       # Number of messages passed the buffer (Count)
board.cache_hierarchy.ruby_system.l1_controllers2.unblockFromL1Cache.m_buf_msgs     0.000667                       # Average number of messages in buffer ((Count/Tick))
board.cache_hierarchy.ruby_system.l1_controllers3.delayHistogram::samples         1864                       # delay_histogram (Unspecified)
board.cache_hierarchy.ruby_system.l1_controllers3.delayHistogram::mean     0.001073                       # delay_histogram (Unspecified)
board.cache_hierarchy.ruby_system.l1_controllers3.delayHistogram::stdev     0.046324                       # delay_histogram (Unspecified)
board.cache_hierarchy.ruby_system.l1_controllers3.delayHistogram::0         1863     99.95%     99.95% # delay_histogram (Unspecified)
board.cache_hierarchy.ruby_system.l1_controllers3.delayHistogram::2            1      0.05%    100.00% # delay_histogram (Unspecified)
board.cache_hierarchy.ruby_system.l1_controllers3.delayHistogram::total         1864                       # delay_histogram (Unspecified)
board.cache_hierarchy.ruby_system.l1_controllers3.L1Dcache.m_demand_hits       230477                       # Number of cache demand hits (Unspecified)
board.cache_hierarchy.ruby_system.l1_controllers3.L1Dcache.m_demand_misses         1101                       # Number of cache demand misses (Unspecified)
board.cache_hierarchy.ruby_system.l1_controllers3.L1Dcache.m_demand_accesses       231578                       # Number of cache demand accesses (Unspecified)
board.cache_hierarchy.ruby_system.l1_controllers3.L1Icache.m_demand_hits       528706                       # Number of cache demand hits (Unspecified)
board.cache_hierarchy.ruby_system.l1_controllers3.L1Icache.m_demand_misses          107                       # Number of cache demand misses (Unspecified)
board.cache_hierarchy.ruby_system.l1_controllers3.L1Icache.m_demand_accesses       528813                       # Number of cache demand accesses (Unspecified)
board.cache_hierarchy.ruby_system.l1_controllers3.mandatoryQueue.m_msg_count       760391                       # Number of messages passed the buffer (Count)
board.cache_hierarchy.ruby_system.l1_controllers3.mandatoryQueue.m_buf_msgs     0.468064                       # Average number of messages in buffer ((Count/Tick))
board.cache_hierarchy.ruby_system.l1_controllers3.power_state.pwrStateResidencyTicks::UNDEFINED   2064576024                       # Cumulative time (in ticks) in various power states (Tick)
board.cache_hierarchy.ruby_system.l1_controllers3.prefetcher.RubyPrefetcher.numMissObserved            0                       # Number of misses observed (Unspecified)
board.cache_hierarchy.ruby_system.l1_controllers3.prefetcher.RubyPrefetcher.numAllocatedStreams            0                       # Number of streams allocated for prefetching (Unspecified)
board.cache_hierarchy.ruby_system.l1_controllers3.prefetcher.RubyPrefetcher.numPrefetchRequested            0                       # Number of prefetch requests made (Unspecified)
board.cache_hierarchy.ruby_system.l1_controllers3.prefetcher.RubyPrefetcher.numHits            0                       # Number of prefetched blocks accessed (for the first time) (Unspecified)
board.cache_hierarchy.ruby_system.l1_controllers3.prefetcher.RubyPrefetcher.numPartialHits            0                       # Number of misses observed for a block being prefetched (Unspecified)
board.cache_hierarchy.ruby_system.l1_controllers3.prefetcher.RubyPrefetcher.numPagesCrossed            0                       # Number of prefetches across pages (Unspecified)
board.cache_hierarchy.ruby_system.l1_controllers3.prefetcher.RubyPrefetcher.numMissedPrefetchedBlocks            0                       # Number of misses for blocks that were prefetched, yet missed (Unspecified)
board.cache_hierarchy.ruby_system.l1_controllers3.requestFromL1Cache.m_msg_count         1748                       # Number of messages passed the buffer (Count)
board.cache_hierarchy.ruby_system.l1_controllers3.requestFromL1Cache.m_buf_msgs     0.002152                       # Average number of messages in buffer ((Count/Tick))
board.cache_hierarchy.ruby_system.l1_controllers3.requestToL1Cache.m_msg_count          111                       # Number of messages passed the buffer (Count)
board.cache_hierarchy.ruby_system.l1_controllers3.requestToL1Cache.m_buf_msgs     0.000068                       # Average number of messages in buffer ((Count/Tick))
board.cache_hierarchy.ruby_system.l1_controllers3.responseFromL1Cache.m_msg_count          116                       # Number of messages passed the buffer (Count)
board.cache_hierarchy.ruby_system.l1_controllers3.responseFromL1Cache.m_buf_msgs     0.000143                       # Average number of messages in buffer ((Count/Tick))
board.cache_hierarchy.ruby_system.l1_controllers3.responseToL1Cache.m_msg_count         1753                       # Number of messages passed the buffer (Count)
board.cache_hierarchy.ruby_system.l1_controllers3.responseToL1Cache.m_buf_msgs     0.001079                       # Average number of messages in buffer ((Count/Tick))
board.cache_hierarchy.ruby_system.l1_controllers3.sequencer.power_state.pwrStateResidencyTicks::UNDEFINED   2064576024                       # Cumulative time (in ticks) in various power states (Tick)
board.cache_hierarchy.ruby_system.l1_controllers3.unblockFromL1Cache.m_msg_count         1075                       # Number of messages passed the buffer (Count)
board.cache_hierarchy.ruby_system.l1_controllers3.unblockFromL1Cache.m_buf_msgs     0.000662                       # Average number of messages in buffer ((Count/Tick))
board.cache_hierarchy.ruby_system.l2_controllers.fullyBusyCycles            3                       # cycles for which number of transistions == max transitions (Unspecified)
board.cache_hierarchy.ruby_system.l2_controllers.delayHistogram::samples        16830                       # delay_histogram (Unspecified)
[...]
board.processor.cores3.core.commitStats0.committedInstType::SimdMatMultAcc            0      0.00%     49.55% # Class of committed instruction. (Count)
board.processor.cores3.core.commitStats0.committedInstType::SimdShift            0      0.00%     49.55% # Class of committed instruction. (Count)
board.processor.cores3.core.commitStats0.committedInstType::SimdShiftAcc            0      0.00%     49.55% # Class of committed instruction. (Count)
board.processor.cores3.core.commitStats0.committedInstType::SimdDiv            0      0.00%     49.55% # Class of committed instruction. (Count)
board.processor.cores3.core.commitStats0.committedInstType::SimdSqrt            0      0.00%     49.55% # Class of committed instruction. (Count)
board.processor.cores3.core.commitStats0.committedInstType::SimdFloatAdd            0      0.00%     49.55% # Class of committed instruction. (Count)
board.processor.cores3.core.commitStats0.committedInstType::SimdFloatAlu            0      0.00%     49.55% # Class of committed instruction. (Count)
board.processor.cores3.core.commitStats0.committedInstType::SimdFloatCmp            0      0.00%     49.55% # Class of committed instruction. (Count)
board.processor.cores3.core.commitStats0.committedInstType::SimdFloatCvt            0      0.00%     49.55% # Class of committed instruction. (Count)
board.processor.cores3.core.commitStats0.committedInstType::SimdFloatDiv            0      0.00%     49.55% # Class of committed instruction. (Count)
board.processor.cores3.core.commitStats0.committedInstType::SimdFloatMisc            0      0.00%     49.55% # Class of committed instruction. (Count)
board.processor.cores3.core.commitStats0.committedInstType::SimdFloatMult            0      0.00%     49.55% # Class of committed instruction. (Count)
board.processor.cores3.core.commitStats0.committedInstType::SimdFloatMultAcc            0      0.00%     49.55% # Class of committed instruction. (Count)
board.processor.cores3.core.commitStats0.committedInstType::SimdFloatMatMultAcc            0      0.00%     49.55% # Class of committed instruction. (Count)
board.processor.cores3.core.commitStats0.committedInstType::SimdFloatSqrt            0      0.00%     49.55% # Class of committed instruction. (Count)
board.processor.cores3.core.commitStats0.committedInstType::SimdReduceAdd            0      0.00%     49.55% # Class of committed instruction. (Count)
board.processor.cores3.core.commitStats0.committedInstType::SimdReduceAlu            0      0.00%     49.55% # Class of committed instruction. (Count)
board.processor.cores3.core.commitStats0.committedInstType::SimdReduceCmp            0      0.00%     49.55% # Class of committed instruction. (Count)
board.processor.cores3.core.commitStats0.committedInstType::SimdFloatReduceAdd            0      0.00%     49.55% # Class of committed instruction. (Count)
board.processor.cores3.core.commitStats0.committedInstType::SimdFloatReduceCmp            0      0.00%     49.55% # Class of committed instruction. (Count)
board.processor.cores3.core.commitStats0.committedInstType::SimdAes            0      0.00%     49.55% # Class of committed instruction. (Count)
board.processor.cores3.core.commitStats0.committedInstType::SimdAesMix            0      0.00%     49.55% # Class of committed instruction. (Count)
board.processor.cores3.core.commitStats0.committedInstType::SimdSha1Hash            0      0.00%     49.55% # Class of committed instruction. (Count)
board.processor.cores3.core.commitStats0.committedInstType::SimdSha1Hash2            0      0.00%     49.55% # Class of committed instruction. (Count)
board.processor.cores3.core.commitStats0.committedInstType::SimdSha256Hash            0      0.00%     49.55% # Class of committed instruction. (Count)
board.processor.cores3.core.commitStats0.committedInstType::SimdSha256Hash2            0      0.00%     49.55% # Class of committed instruction. (Count)
board.processor.cores3.core.commitStats0.committedInstType::SimdShaSigma2            0      0.00%     49.55% # Class of committed instruction. (Count)
board.processor.cores3.core.commitStats0.committedInstType::SimdShaSigma3            0      0.00%     49.55% # Class of committed instruction. (Count)
board.processor.cores3.core.commitStats0.committedInstType::SimdSha3            0      0.00%     49.55% # Class of committed instruction. (Count)
board.processor.cores3.core.commitStats0.committedInstType::SimdSm4e            0      0.00%     49.55% # Class of committed instruction. (Count)
board.processor.cores3.core.commitStats0.committedInstType::SimdCrc            0      0.00%     49.55% # Class of committed instruction. (Count)
board.processor.cores3.core.commitStats0.committedInstType::SimdPredAlu            0      0.00%     49.55% # Class of committed instruction. (Count)
board.processor.cores3.core.commitStats0.committedInstType::SimdDotProd            0      0.00%     49.55% # Class of committed instruction. (Count)
board.processor.cores3.core.commitStats0.committedInstType::Matrix            0      0.00%     49.55% # Class of committed instruction. (Count)
board.processor.cores3.core.commitStats0.committedInstType::MatrixMov            0      0.00%     49.55% # Class of committed instruction. (Count)
board.processor.cores3.core.commitStats0.committedInstType::MatrixOP            0      0.00%     49.55% # Class of committed instruction. (Count)
board.processor.cores3.core.commitStats0.committedInstType::MemRead       194538     42.38%     91.93% # Class of committed instruction. (Count)
board.processor.cores3.core.commitStats0.committedInstType::MemWrite        37028      8.07%    100.00% # Class of committed instruction. (Count)
board.processor.cores3.core.commitStats0.committedInstType::FloatMemRead            0      0.00%    100.00% # Class of committed instruction. (Count)
board.processor.cores3.core.commitStats0.committedInstType::FloatMemWrite           12      0.00%    100.00% # Class of committed instruction. (Count)
board.processor.cores3.core.commitStats0.committedInstType::InstPrefetch            0      0.00%    100.00% # Class of committed instruction. (Count)
board.processor.cores3.core.commitStats0.committedInstType::SimdUnitStrideLoad            0      0.00%    100.00% # Class of committed instruction. (Count)
board.processor.cores3.core.commitStats0.committedInstType::SimdUnitStrideStore            0      0.00%    100.00% # Class of committed instruction. (Count)
board.processor.cores3.core.commitStats0.committedInstType::SimdUnitStrideMaskLoad            0      0.00%    100.00% # Class of committed instruction. (Count)
board.processor.cores3.core.commitStats0.committedInstType::SimdUnitStrideMaskStore            0      0.00%    100.00% # Class of committed instruction. (Count)
board.processor.cores3.core.commitStats0.committedInstType::SimdStridedLoad            0      0.00%    100.00% # Class of committed instruction. (Count)
board.processor.cores3.core.commitStats0.committedInstType::SimdStridedStore            0      0.00%    100.00% # Class of committed instruction. (Count)
board.processor.cores3.core.commitStats0.committedInstType::SimdIndexedLoad            0      0.00%    100.00% # Class of committed instruction. (Count)
board.processor.cores3.core.commitStats0.committedInstType::SimdIndexedStore            0      0.00%    100.00% # Class of committed instruction. (Count)
board.processor.cores3.core.commitStats0.committedInstType::SimdWholeRegisterLoad            0      0.00%    100.00% # Class of committed instruction. (Count)
board.processor.cores3.core.commitStats0.committedInstType::SimdWholeRegisterStore            0      0.00%    100.00% # Class of committed instruction. (Count)
board.processor.cores3.core.commitStats0.committedInstType::SimdUnitStrideFaultOnlyFirstLoad            0      0.00%    100.00% # Class of committed instruction. (Count)
board.processor.cores3.core.commitStats0.committedInstType::SimdUnitStrideSegmentedLoad            0      0.00%    100.00% # Class of committed instruction. (Count)
board.processor.cores3.core.commitStats0.committedInstType::SimdUnitStrideSegmentedStore            0      0.00%    100.00% # Class of committed instruction. (Count)
board.processor.cores3.core.commitStats0.committedInstType::SimdUnitStrideSegmentedFaultOnlyFirstLoad            0      0.00%    100.00% # Class of committed instruction. (Count)
board.processor.cores3.core.commitStats0.committedInstType::SimdStrideSegmentedLoad            0      0.00%    100.00% # Class of committed instruction. (Count)
board.processor.cores3.core.commitStats0.committedInstType::SimdStrideSegmentedStore            0      0.00%    100.00% # Class of committed instruction. (Count)
board.processor.cores3.core.commitStats0.committedInstType::SimdExt            0      0.00%    100.00% # Class of committed instruction. (Count)
board.processor.cores3.core.commitStats0.committedInstType::SimdFloatExt            0      0.00%    100.00% # Class of committed instruction. (Count)
board.processor.cores3.core.commitStats0.committedInstType::SimdConfig            0      0.00%    100.00% # Class of committed instruction. (Count)
board.processor.cores3.core.commitStats0.committedInstType::SimdBf16Add            0      0.00%    100.00% # Class of committed instruction. (Count)
board.processor.cores3.core.commitStats0.committedInstType::SimdBf16Cmp            0      0.00%    100.00% # Class of committed instruction. (Count)
board.processor.cores3.core.commitStats0.committedInstType::SimdBf16Cvt            0      0.00%    100.00% # Class of committed instruction. (Count)
board.processor.cores3.core.commitStats0.committedInstType::SimdBf16DotProd            0      0.00%    100.00% # Class of committed instruction. (Count)
board.processor.cores3.core.commitStats0.committedInstType::SimdBf16MatMultAcc            0      0.00%    100.00% # Class of committed instruction. (Count)
board.processor.cores3.core.commitStats0.committedInstType::SimdBf16Mult            0      0.00%    100.00% # Class of committed instruction. (Count)
board.processor.cores3.core.commitStats0.committedInstType::SimdBf16MultAcc            0      0.00%    100.00% # Class of committed instruction. (Count)
board.processor.cores3.core.commitStats0.committedInstType::Bf16Cvt            0      0.00%    100.00% # Class of committed instruction. (Count)
board.processor.cores3.core.commitStats0.committedInstType::System            0      0.00%    100.00% # Class of committed instruction. (Count)
board.processor.cores3.core.commitStats0.committedInstType::total       458987                       # Class of committed instruction. (Count)
board.processor.cores3.core.commitStats0.committedControl::IsControl        40957                       # Class of control type instructions committed (Count)
board.processor.cores3.core.commitStats0.committedControl::IsDirectControl        38923                       # Class of control type instructions committed (Count)
board.processor.cores3.core.commitStats0.committedControl::IsIndirectControl         2034                       # Class of control type instructions committed (Count)
board.processor.cores3.core.commitStats0.committedControl::IsCondControl        20489                       # Class of control type instructions committed (Count)
board.processor.cores3.core.commitStats0.committedControl::IsUncondControl        20468                       # Class of control type instructions committed (Count)
board.processor.cores3.core.commitStats0.committedControl::IsCall         2036                       # Class of control type instructions committed (Count)
board.processor.cores3.core.commitStats0.committedControl::IsReturn         2029                       # Class of control type instructions committed (Count)
board.processor.cores3.core.commitStats0.functionCalls         2036                       # Number of function calls committed (Count)
board.processor.cores3.core.commitStats0.numCallsReturns         4065                       # Number of function calls and returns committed (Count)
board.processor.cores3.core.exec_context.thread_0.numMatAluAccesses            0                       # Number of matrix alu accesses (Count)
board.processor.cores3.core.exec_context.thread_0.numMatInsts            0                       # Number of matrix instructions (Count)
board.processor.cores3.core.exec_context.thread_0.numIdleCycles 297824.734030                       # Number of idle cycles (Cycle)
board.processor.cores3.core.exec_context.thread_0.numBusyCycles 5902103.265970                       # Number of busy cycles (Cycle)
board.processor.cores3.core.exec_context.thread_0.notIdleFraction     0.951963                       # Percentage of non-idle cycles (Ratio)
board.processor.cores3.core.exec_context.thread_0.idleFraction     0.048037                       # Percentage of idle cycles (Ratio)
board.processor.cores3.core.executeStats0.numInsts       458980                       # Number of executed instructions (Count)
board.processor.cores3.core.executeStats0.numNop            0                       # Number of nop insts executed (Count)
board.processor.cores3.core.executeStats0.numBranches        40957                       # Number of branches executed (Count)
board.processor.cores3.core.executeStats0.numLoadInsts       194534                       # Number of load instructions executed (Count)
board.processor.cores3.core.executeStats0.numStoreInsts        37044                       # Number of stores executed (Count)
board.processor.cores3.core.executeStats0.instRate     0.074030                       # Inst execution rate ((Count/Cycle))
board.processor.cores3.core.executeStats0.numFpAluAccesses           12                       # Number of float alu accesses (Count)
board.processor.cores3.core.executeStats0.numFpRegReads           12                       # Number of times the floating registers were read (Count)
board.processor.cores3.core.executeStats0.numFpRegWrites            0                       # Number of times the floating registers were written (Count)
board.processor.cores3.core.executeStats0.numIntAluAccesses       442576                       # Number of integer alu accesses (Count)
board.processor.cores3.core.executeStats0.numIntRegReads       561512                       # Number of times the integer registers were read (Count)
board.processor.cores3.core.executeStats0.numIntRegWrites       381008                       # Number of times the integer registers were written (Count)
board.processor.cores3.core.executeStats0.numMemRefs       231578                       # Number of memory refs (Count)
board.processor.cores3.core.executeStats0.numMiscRegReads           30                       # Number of times the Misc registers were read (Count)
board.processor.cores3.core.executeStats0.numVecAluAccesses            0                       # Number of vector alu accesses (Count)
board.processor.cores3.core.executeStats0.numDiscardedOps            0                       # Number of ops (including micro ops) which were discarded before commit (Count)
board.processor.cores3.core.fetchStats0.numInsts       458984                       # Number of instructions fetched (thread level) (Count)
board.processor.cores3.core.fetchStats0.numOps       458991                       # Number of ops (including micro ops) fetched (thread level) (Count)
board.processor.cores3.core.fetchStats0.fetchRate     0.074031                       # Number of inst fetches per cycle ((Count/Cycle))
board.processor.cores3.core.fetchStats0.numBranches        40957                       # Number of branches fetched (Count)
board.processor.cores3.core.fetchStats0.branchRate     0.006606                       # Number of branch fetches per cycle (Ratio)
board.processor.cores3.core.fetchStats0.numFetchSuspends            0                       # Number of times Execute suspended instruction fetching (Count)
board.processor.cores3.core.mmu.dtb.readHits            0                       # read hits (Count)
board.processor.cores3.core.mmu.dtb.readMisses            0                       # read misses (Count)
board.processor.cores3.core.mmu.dtb.readAccesses            0                       # read accesses (Count)
board.processor.cores3.core.mmu.dtb.writeHits            0                       # write hits (Count)
board.processor.cores3.core.mmu.dtb.writeMisses            0                       # write misses (Count)
board.processor.cores3.core.mmu.dtb.writeAccesses            0                       # write accesses (Count)
board.processor.cores3.core.mmu.dtb.hits            0                       # Total TLB (read and write) hits (Count)
board.processor.cores3.core.mmu.dtb.misses            0                       # Total TLB (read and write) misses (Count)
board.processor.cores3.core.mmu.dtb.accesses            0                       # Total TLB (read and write) accesses (Count)
board.processor.cores3.core.mmu.dtb.walker.num_4kb_walks            0                       # Completed page walks with 4KB pages (Count)
board.processor.cores3.core.mmu.dtb.walker.num_64kb_walks            0                       # Completed page walks with 64KB pages (Count)
board.processor.cores3.core.mmu.dtb.walker.num_2mb_walks            0                       # Completed page walks with 2MB pages (Count)
board.processor.cores3.core.mmu.dtb.walker.power_state.pwrStateResidencyTicks::UNDEFINED   2064576024                       # Cumulative time (in ticks) in various power states (Tick)
board.processor.cores3.core.mmu.itb.readHits            0                       # read hits (Count)
board.processor.cores3.core.mmu.itb.readMisses            0                       # read misses (Count)
board.processor.cores3.core.mmu.itb.readAccesses            0                       # read accesses (Count)
board.processor.cores3.core.mmu.itb.writeHits            0                       # write hits (Count)
board.processor.cores3.core.mmu.itb.writeMisses            0                       # write misses (Count)
board.processor.cores3.core.mmu.itb.writeAccesses            0                       # write accesses (Count)
board.processor.cores3.core.mmu.itb.hits            0                       # Total TLB (read and write) hits (Count)
board.processor.cores3.core.mmu.itb.misses            0                       # Total TLB (read and write) misses (Count)
board.processor.cores3.core.mmu.itb.accesses            0                       # Total TLB (read and write) accesses (Count)
board.processor.cores3.core.mmu.itb.walker.num_4kb_walks            0                       # Completed page walks with 4KB pages (Count)
board.processor.cores3.core.mmu.itb.walker.num_64kb_walks            0                       # Completed page walks with 64KB pages (Count)
board.processor.cores3.core.mmu.itb.walker.num_2mb_walks            0                       # Completed page walks with 2MB pages (Count)
board.processor.cores3.core.mmu.itb.walker.power_state.pwrStateResidencyTicks::UNDEFINED   2064576024                       # Cumulative time (in ticks) in various power states (Tick)
board.processor.cores3.core.power_state.pwrStateResidencyTicks::ON   2064576024                       # Cumulative time (in ticks) in various power states (Tick)
board.processor.cores3.core.thread_0.numInsts       458980                       # Number of Instructions committed (Count)
board.processor.cores3.core.thread_0.numOps       458987                       # Number of Ops committed (Count)
board.processor.cores3.core.thread_0.numMemRefs       231578                       # Number of Memory References (Count)
board.workload.inst.arm                             0                       # number of arm instructions executed (Count)
board.workload.inst.quiesce                         0                       # number of quiesce instructions executed (Count)

---------- End Simulation Statistics   ----------
